Program Version,EnergyPlus, Version 23.2.0-7636e6b3e9, YMD=2024.08.21 10:09,
   ************* Beginning Zone Sizing Calculations
   ** Warning ** Site:GroundTemperature:BuildingSurface: Some values fall outside the range of 15-25C.
   **   ~~~   ** These values may be inappropriate.  Please consult the Input Output Reference for more details.
   ** Warning ** ProcessScheduleInput: Schedule:Day:Interval="5 ZONE DOAS OCC SCH DEFAULT", Blank Schedule Type Limits Name input -- will not be validated.
   ** Warning ** ProcessScheduleInput: Schedule:Day:Interval="5 ZONE DOAS OCC SCH SUMMER DESIGN DAY", Blank Schedule Type Limits Name input -- will not be validated.
   ** Warning ** ProcessScheduleInput: Schedule:Day:Interval="5 ZONE DOAS OCC SCH SUNDAY", Blank Schedule Type Limits Name input -- will not be validated.
   ** Warning ** ProcessScheduleInput: Schedule:Day:Interval="5 ZONE DOAS OCC SCH WINTER DESIGN DAY", Blank Schedule Type Limits Name input -- will not be validated.
   ** Warning ** ProcessScheduleInput: Schedule:Day:Interval="CORE_ZN_TZONE RADIANT SYSTEM OCCUPIED SCHEDULE DEFAULT", Blank Schedule Type Limits Name input -- will not be validated.
   ** Warning ** ProcessScheduleInput: Schedule:Day:Interval="CORE_ZN_TZONE RADIANT SYSTEM OCCUPIED SCHEDULE SUMMER DESIGN DAY", Blank Schedule Type Limits Name input -- will not be validated.
   ** Warning ** ProcessScheduleInput: Schedule:Day:Interval="CORE_ZN_TZONE RADIANT SYSTEM OCCUPIED SCHEDULE SUNDAY", Blank Schedule Type Limits Name input -- will not be validated.
   ** Warning ** ProcessScheduleInput: Schedule:Day:Interval="CORE_ZN_TZONE RADIANT SYSTEM OCCUPIED SCHEDULE WINTER DESIGN DAY", Blank Schedule Type Limits Name input -- will not be validated.
   ** Warning ** ProcessScheduleInput: Schedule:Day:Interval="PERIMETER_ZN_1_TZONE RADIANT SYSTEM OCCUPIED SCHEDULE DEFAULT", Blank Schedule Type Limits Name input -- will not be validated.
   ** Warning ** ProcessScheduleInput: Schedule:Day:Interval="PERIMETER_ZN_1_TZONE RADIANT SYSTEM OCCUPIED SCHEDULE SUMMER DESIGN DAY", Blank Schedule Type Limits Name input -- will not be validated.
   ** Warning ** ProcessScheduleInput: Schedule:Day:Interval="PERIMETER_ZN_1_TZONE RADIANT SYSTEM OCCUPIED SCHEDULE SUNDAY", Blank Schedule Type Limits Name input -- will not be validated.
   ** Warning ** ProcessScheduleInput: Schedule:Day:Interval="PERIMETER_ZN_1_TZONE RADIANT SYSTEM OCCUPIED SCHEDULE WINTER DESIGN DAY", Blank Schedule Type Limits Name input -- will not be validated.
   ** Warning ** ProcessScheduleInput: Schedule:Day:Interval="PERIMETER_ZN_2_TZONE RADIANT SYSTEM OCCUPIED SCHEDULE DEFAULT", Blank Schedule Type Limits Name input -- will not be validated.
   ** Warning ** ProcessScheduleInput: Schedule:Day:Interval="PERIMETER_ZN_2_TZONE RADIANT SYSTEM OCCUPIED SCHEDULE SUMMER DESIGN DAY", Blank Schedule Type Limits Name input -- will not be validated.
   ** Warning ** ProcessScheduleInput: Schedule:Day:Interval="PERIMETER_ZN_2_TZONE RADIANT SYSTEM OCCUPIED SCHEDULE SUNDAY", Blank Schedule Type Limits Name input -- will not be validated.
   ** Warning ** ProcessScheduleInput: Schedule:Day:Interval="PERIMETER_ZN_2_TZONE RADIANT SYSTEM OCCUPIED SCHEDULE WINTER DESIGN DAY", Blank Schedule Type Limits Name input -- will not be validated.
   ** Warning ** ProcessScheduleInput: Schedule:Day:Interval="PERIMETER_ZN_3_TZONE RADIANT SYSTEM OCCUPIED SCHEDULE DEFAULT", Blank Schedule Type Limits Name input -- will not be validated.
   ** Warning ** ProcessScheduleInput: Schedule:Day:Interval="PERIMETER_ZN_3_TZONE RADIANT SYSTEM OCCUPIED SCHEDULE SUMMER DESIGN DAY", Blank Schedule Type Limits Name input -- will not be validated.
   ** Warning ** ProcessScheduleInput: Schedule:Day:Interval="PERIMETER_ZN_3_TZONE RADIANT SYSTEM OCCUPIED SCHEDULE SUNDAY", Blank Schedule Type Limits Name input -- will not be validated.
   ** Warning ** ProcessScheduleInput: Schedule:Day:Interval="PERIMETER_ZN_3_TZONE RADIANT SYSTEM OCCUPIED SCHEDULE WINTER DESIGN DAY", Blank Schedule Type Limits Name input -- will not be validated.
   ** Warning ** ProcessScheduleInput: Schedule:Day:Interval="PERIMETER_ZN_4_TZONE RADIANT SYSTEM OCCUPIED SCHEDULE DEFAULT", Blank Schedule Type Limits Name input -- will not be validated.
   ** Warning ** ProcessScheduleInput: Schedule:Day:Interval="PERIMETER_ZN_4_TZONE RADIANT SYSTEM OCCUPIED SCHEDULE SUMMER DESIGN DAY", Blank Schedule Type Limits Name input -- will not be validated.
   ** Warning ** ProcessScheduleInput: Schedule:Day:Interval="PERIMETER_ZN_4_TZONE RADIANT SYSTEM OCCUPIED SCHEDULE SUNDAY", Blank Schedule Type Limits Name input -- will not be validated.
   ** Warning ** ProcessScheduleInput: Schedule:Day:Interval="PERIMETER_ZN_4_TZONE RADIANT SYSTEM OCCUPIED SCHEDULE WINTER DESIGN DAY", Blank Schedule Type Limits Name input -- will not be validated.
   ** Warning ** ProcessScheduleInput: Schedule:Day:Interval="SCHEDULE DAY 10", Blank Schedule Type Limits Name input -- will not be validated.
   ** Warning ** ProcessScheduleInput: Schedule:Day:Interval="SCHEDULE DAY 11", Blank Schedule Type Limits Name input -- will not be validated.
   ** Warning ** ProcessScheduleInput: Schedule:Day:Interval="SCHEDULE DAY 12", Blank Schedule Type Limits Name input -- will not be validated.
   ** Warning ** ProcessScheduleInput: Schedule:Day:Interval="SCHEDULE DAY 13", Blank Schedule Type Limits Name input -- will not be validated.
   ** Warning ** ProcessScheduleInput: Schedule:Day:Interval="SCHEDULE DAY 14", Blank Schedule Type Limits Name input -- will not be validated.
   ** Warning ** ProcessScheduleInput: Schedule:Day:Interval="SCHEDULE DAY 15", Blank Schedule Type Limits Name input -- will not be validated.
   ** Warning ** ProcessScheduleInput: Schedule:Day:Interval="SCHEDULE DAY 16", Blank Schedule Type Limits Name input -- will not be validated.
   ** Warning ** ProcessScheduleInput: Schedule:Day:Interval="SCHEDULE DAY 17", Blank Schedule Type Limits Name input -- will not be validated.
   ** Warning ** ProcessScheduleInput: Schedule:Day:Interval="SCHEDULE DAY 18", Blank Schedule Type Limits Name input -- will not be validated.
   ** Warning ** ProcessScheduleInput: Schedule:Day:Interval="SCHEDULE DAY 7", Blank Schedule Type Limits Name input -- will not be validated.
   ** Warning ** ProcessScheduleInput: Schedule:Day:Interval="SCHEDULE DAY 8", Blank Schedule Type Limits Name input -- will not be validated.
   ** Warning ** ProcessScheduleInput: Schedule:Day:Interval="SCHEDULE DAY 9", Blank Schedule Type Limits Name input -- will not be validated.
   ** Warning ** ProcessScheduleInput: Schedule:Year="5 ZONE DOAS OCC SCH", Blank Schedule Type Limits Name input -- will not be validated.
   ** Warning ** ProcessScheduleInput: Schedule:Year="CORE_ZN_TZONE RADIANT SYSTEM OCCUPIED SCHEDULE", Blank Schedule Type Limits Name input -- will not be validated.
   ** Warning ** ProcessScheduleInput: Schedule:Year="PERIMETER_ZN_1_TZONE RADIANT SYSTEM OCCUPIED SCHEDULE", Blank Schedule Type Limits Name input -- will not be validated.
   ** Warning ** ProcessScheduleInput: Schedule:Year="PERIMETER_ZN_2_TZONE RADIANT SYSTEM OCCUPIED SCHEDULE", Blank Schedule Type Limits Name input -- will not be validated.
   ** Warning ** ProcessScheduleInput: Schedule:Year="PERIMETER_ZN_3_TZONE RADIANT SYSTEM OCCUPIED SCHEDULE", Blank Schedule Type Limits Name input -- will not be validated.
   ** Warning ** ProcessScheduleInput: Schedule:Year="PERIMETER_ZN_4_TZONE RADIANT SYSTEM OCCUPIED SCHEDULE", Blank Schedule Type Limits Name input -- will not be validated.
   ** Warning ** ProcessScheduleInput: Schedule:Constant="ALWAYS OFF DISCRETE", Blank Schedule Type Limits Name input -- will not be validated.
   ** Warning ** ProcessScheduleInput: Schedule:Constant="ALWAYS ON CONTINUOUS", Blank Schedule Type Limits Name input -- will not be validated.
   ** Warning ** Construction RADIANT EXTERIOR CEILING SLAB CONSTRUCTION must have a temperature calculation that is between two layers
   **   ~~~   ** The temperature calculation after layer parameter has been set to one less than the number of layers.
   ** Warning ** Construction RADIANT EXTERIOR SLAB CONSTRUCTION must have a temperature calculation that is between two layers
   **   ~~~   ** The temperature calculation after layer parameter has been set to one less than the number of layers.
   ** Warning ** Construction RADIANT GROUND SLAB CONSTRUCTION must have a temperature calculation that is between two layers
   **   ~~~   ** The temperature calculation after layer parameter has been set to one less than the number of layers.
   ** Warning ** CheckUsedConstructions: There are 6 nominally unused constructions in input.
   **   ~~~   ** For explicit details on each unused construction, use Output:Diagnostics,DisplayExtraWarnings;
   ** Warning ** GetElectricEIRChillerInput: Chiller:Electric:EIR="90.1-2013 AIRCOOLED   CHILLER 0"
   **   ~~~   ** Capacity ratio as a function of temperature curve output is not equal to 1.0 (+ or - 10%) at reference conditions.
   **   ~~~   ** Curve output at reference conditions = 1.105
   ** Warning ** Inside surface heat balance did not converge with Max Temp Difference [C] =0.357 vs Max Allowed Temp Diff [C] =2.000000E-003
   **   ~~~   **  During Sizing, Environment=SINGAPORE ANN CLG .4% CONDNS DB=>MWB, at Simulation time=06/21 17:50 - 17:55
   ** Warning ** Inside surface heat balance did not converge with Max Temp Difference [C] =2.224E-002 vs Max Allowed Temp Diff [C] =2.000000E-003
   **   ~~~   **  During Sizing, Environment=SINGAPORE ANN CLG .4% CONDNS DB=>MWB, at Simulation time=06/21 18:00 - 18:05
   ** Warning ** Calculated design heating load for zone=CORE_ZN_TZONE is zero.
   **   ~~~   ** Check Sizing:Zone and ZoneControl:Thermostat inputs.
   ** Warning ** Calculated design heating load for zone=PERIMETER_ZN_1_TZONE is zero.
   **   ~~~   ** Check Sizing:Zone and ZoneControl:Thermostat inputs.
   ** Warning ** Calculated design heating load for zone=PERIMETER_ZN_2_TZONE is zero.
   **   ~~~   ** Check Sizing:Zone and ZoneControl:Thermostat inputs.
   ** Warning ** Calculated design heating load for zone=PERIMETER_ZN_3_TZONE is zero.
   **   ~~~   ** Check Sizing:Zone and ZoneControl:Thermostat inputs.
   ** Warning ** Calculated design heating load for zone=PERIMETER_ZN_4_TZONE is zero.
   **   ~~~   ** Check Sizing:Zone and ZoneControl:Thermostat inputs.
   ************* Beginning System Sizing Calculations
   ** Warning ** ManageSizing: Calculated Heating Design Air Flow Rate for System=5 ZONE DOAS is zero.
   **   ~~~   ** Check Sizing:Zone and ZoneControl:Thermostat inputs.
   ************* Beginning Plant Sizing Calculations
   ** Warning ** GetOAControllerInputs: Controller:MechanicalVentilation="5 ZONE DOAS MECHANICAL VENTILATION CONTROLLER"
   **   ~~~   ** Cannot locate a matching DesignSpecification:ZoneAirDistribution object for Zone="CORE_ZN_TZONE".
   **   ~~~   ** Using default zone air distribution effectiveness of 1.0 for heating and cooling.
   ** Warning ** GetOAControllerInputs: Controller:MechanicalVentilation="5 ZONE DOAS MECHANICAL VENTILATION CONTROLLER"
   **   ~~~   ** Cannot locate a matching DesignSpecification:ZoneAirDistribution object for Zone="PERIMETER_ZN_1_TZONE".
   **   ~~~   ** Using default zone air distribution effectiveness of 1.0 for heating and cooling.
   ** Warning ** GetOAControllerInputs: Controller:MechanicalVentilation="5 ZONE DOAS MECHANICAL VENTILATION CONTROLLER"
   **   ~~~   ** Cannot locate a matching DesignSpecification:ZoneAirDistribution object for Zone="PERIMETER_ZN_2_TZONE".
   **   ~~~   ** Using default zone air distribution effectiveness of 1.0 for heating and cooling.
   ** Warning ** GetOAControllerInputs: Controller:MechanicalVentilation="5 ZONE DOAS MECHANICAL VENTILATION CONTROLLER"
   **   ~~~   ** Cannot locate a matching DesignSpecification:ZoneAirDistribution object for Zone="PERIMETER_ZN_3_TZONE".
   **   ~~~   ** Using default zone air distribution effectiveness of 1.0 for heating and cooling.
   ** Warning ** GetOAControllerInputs: Controller:MechanicalVentilation="5 ZONE DOAS MECHANICAL VENTILATION CONTROLLER"
   **   ~~~   ** Cannot locate a matching DesignSpecification:ZoneAirDistribution object for Zone="PERIMETER_ZN_4_TZONE".
   **   ~~~   ** Using default zone air distribution effectiveness of 1.0 for heating and cooling.
   ** Warning ** GetDXCoils: Coil:Heating:DX:SingleSpeed="5 ZONE DOAS HTG COIL 19 CLG KBTU/HR 8.0HSPF" curve values
   **   ~~~   ** ... Defrost Energy Input Ratio Function of Temperature Curve Name = 5 ZONE DOAS HTG COIL DEFROST EIR FUNC OF TEMP CURVE output is not equal to 1.0 (+ or - 10%) at rated conditions.
   **   ~~~   ** ... Curve output at rated conditions = 0.788
   ** Warning ** CalcTwoSpeedDXCoilStandardRating: Did not find an appropriate fan associated with DX coil named = "5 ZONE DOAS 2SPD DX CLG COIL 19KBTU/HR 14.0SEER". Standard Ratings will not be calculated.
   ** Warning ** SizePlantLoop: Calculated Plant Sizing Design Volume Flow Rate=[0.00] is too small. Set to 0.0
   **   ~~~   ** ..occurs for PlantLoop=HOT WATER LOOP
   ** Warning ** SizePump: Calculated Pump Nominal Volume Flow Rate=[0.00] is too small. Set to 0.0
   **   ~~~   ** ..occurs for Pump=HOT WATER LOOP PUMP
   ** Warning ** Check input. Pump nominal power or motor efficiency is set to 0, for pump=HOT WATER LOOP PUMP
   ** Warning ** Check input. Pump nominal flow rate is set or calculated = 0, for pump=HOT WATER LOOP PUMP
   ** Warning ** Output:Meter: invalid Key Name="NATURALGAS:FACILITY" - not found.
   ** Warning ** Output:Meter: invalid Key Name="DISTRICTCOOLING:FACILITY" - not found.
   ** Warning ** Output:Meter: invalid Key Name="DISTRICTHEATING:FACILITY" - not found.
   ** Warning ** Output:Meter:MeterFileOnly: invalid Key Name="NATURALGAS:FACILITY" - not found.
   ** Warning ** Output:Meter:MeterFileOnly requested for "Electricity:Facility" (TimeStep), already on "Output:Meter". Will report to both eplusout.eso and eplusout.mtr
   ************* Testing Individual Branch Integrity
   ************* All Branches passed integrity testing
   ************* Testing Individual Supply Air Path Integrity
   ************* All Supply Air Paths passed integrity testing
   ************* Testing Individual Return Air Path Integrity
   ************* All Return Air Paths passed integrity testing
   ************* No node connection errors were found.
   ************* Beginning Simulation
   ** Warning ** Processing Monthly Tabular Reports: Variable names not valid for this simulation
   **   ~~~   ** ...use Output:Diagnostics,DisplayExtraWarnings; to show more details on individual variables.
   ** Warning ** Inside surface heat balance did not converge with Max Temp Difference [C] =1.510 vs Max Allowed Temp Diff [C] =2.000000E-003
   **   ~~~   **  Environment=RUN PERIOD 1, at Simulation time=03/07 14:40 - 14:45
   ** Warning ** Inside surface heat balance did not converge with Max Temp Difference [C] =0.223 vs Max Allowed Temp Diff [C] =2.000000E-003
   **   ~~~   **  Environment=RUN PERIOD 1, at Simulation time=03/07 14:50 - 14:55
   ** Warning ** Inside surface heat balance did not converge with Max Temp Difference [C] =0.763 vs Max Allowed Temp Diff [C] =2.000000E-003
   **   ~~~   **  Environment=RUN PERIOD 1, at Simulation time=03/07 15:00 - 15:05
   ** Warning ** Inside surface heat balance did not converge with Max Temp Difference [C] =0.272 vs Max Allowed Temp Diff [C] =2.000000E-003
   **   ~~~   **  Environment=RUN PERIOD 1, at Simulation time=03/15 18:00 - 18:05
   ** Warning ** Inside surface heat balance did not converge with Max Temp Difference [C] =6.768E-002 vs Max Allowed Temp Diff [C] =2.000000E-003
   **   ~~~   **  Environment=RUN PERIOD 1, at Simulation time=03/18 14:30 - 14:35
   ** Warning ** Inside surface heat balance did not converge with Max Temp Difference [C] =0.177 vs Max Allowed Temp Diff [C] =2.000000E-003
   **   ~~~   **  Environment=RUN PERIOD 1, at Simulation time=03/20 17:40 - 17:45
   ** Warning ** Inside surface heat balance did not converge with Max Temp Difference [C] =2.940E-002 vs Max Allowed Temp Diff [C] =2.000000E-003
   **   ~~~   **  Environment=RUN PERIOD 1, at Simulation time=03/20 17:50 - 17:55
   ** Warning ** Inside surface heat balance did not converge with Max Temp Difference [C] =0.405 vs Max Allowed Temp Diff [C] =2.000000E-003
   **   ~~~   **  Environment=RUN PERIOD 1, at Simulation time=03/22 15:30 - 15:35
   ** Warning ** Inside surface heat balance did not converge with Max Temp Difference [C] =0.147 vs Max Allowed Temp Diff [C] =2.000000E-003
   **   ~~~   **  Environment=RUN PERIOD 1, at Simulation time=03/24 17:40 - 17:45
   ** Warning ** Inside surface heat balance did not converge with Max Temp Difference [C] =3.416 vs Max Allowed Temp Diff [C] =2.000000E-003
   **   ~~~   **  Environment=RUN PERIOD 1, at Simulation time=03/29 13:30 - 13:40
   ** Warning ** Inside surface heat balance did not converge with Max Temp Difference [C] =2.219E-003 vs Max Allowed Temp Diff [C] =2.000000E-003
   **   ~~~   **  Environment=RUN PERIOD 1, at Simulation time=04/04 16:00 - 16:10
   ** Warning ** Inside surface heat balance did not converge with Max Temp Difference [C] =7.728E-003 vs Max Allowed Temp Diff [C] =2.000000E-003
   **   ~~~   **  Environment=RUN PERIOD 1, at Simulation time=04/04 16:10 - 16:20
   ** Warning ** Inside surface heat balance did not converge with Max Temp Difference [C] =1.561E-002 vs Max Allowed Temp Diff [C] =2.000000E-003
   **   ~~~   **  Environment=RUN PERIOD 1, at Simulation time=04/04 16:20 - 16:25
   ** Warning ** The resource referenced by LifeCycleCost:UsePriceEscalation= "U.S. AVG  COMMERCIAL-ELECTRICITY" has no energy cost. 
   **   ~~~   ** ... It is likely that the wrong resource is used. The resource should match the meter used in Utility:Tariff.
   ** Warning ** The resource referenced by LifeCycleCost:UsePriceEscalation= "U.S. AVG  COMMERCIAL-DISTILLATE OIL" has no energy cost. 
   **   ~~~   ** ... It is likely that the wrong resource is used. The resource should match the meter used in Utility:Tariff.
   ** Warning ** The resource referenced by LifeCycleCost:UsePriceEscalation= "U.S. AVG  COMMERCIAL-RESIDUAL OIL" has no energy cost. 
   **   ~~~   ** ... It is likely that the wrong resource is used. The resource should match the meter used in Utility:Tariff.
   ** Warning ** The resource referenced by LifeCycleCost:UsePriceEscalation= "U.S. AVG  COMMERCIAL-NATURAL GAS" has no energy cost. 
   **   ~~~   ** ... It is likely that the wrong resource is used. The resource should match the meter used in Utility:Tariff.
   ** Warning ** The resource referenced by LifeCycleCost:UsePriceEscalation= "U.S. AVG  COMMERCIAL-COAL" has no energy cost. 
   **   ~~~   ** ... It is likely that the wrong resource is used. The resource should match the meter used in Utility:Tariff.
   ************* Simulation Error Summary *************
   ************* There are 16 unused schedules in input.
   ************* There are 16 unused week schedules in input.
   ************* There are 42 unused day schedules in input.
   ************* Use Output:Diagnostics,DisplayUnusedSchedules; to see them.
   *************
   ************* ===== Recurring Error Summary =====
   ************* The following recurring error messages occurred.
   *************
   *************  ** Warning ** Inside surface heat balance convergence problem continues
   *************  **   ~~~   **   This error occurred 67 total times;
   *************  **   ~~~   **   during Warmup 0 times;
   *************  **   ~~~   **   during Sizing 0 times.
   *************  **   ~~~   **   Max=2.030979 [C]  Min=0.002630 [C]
   *************
   *************
   ************* ===== Final Error Summary =====
   ************* The following error categories occurred.  Consider correcting or noting.
   ************* Nominally Unused Constructions
   ************* ..The nominally unused constructions warning is provided to alert you to potential conditions that can cause
   ************* ..extra time during simulation. Each construction is calculated by the algorithm indicated in the HeatBalanceAlgorithm
   ************* ..object. You may remove the constructions indicated (when you use the DisplayExtraWarnings option).
   *************
   ************* EnergyPlus Warmup Error Summary. During Warmup: 0 Warning; 0 Severe Errors.
   ************* EnergyPlus Sizing Error Summary. During Sizing: 58 Warning; 0 Severe Errors.
   ************* EnergyPlus Completed Successfully-- 160 Warning; 0 Severe Errors; Elapsed Time=00hr 00min 13.61sec
