Program Version,EnergyPlus, Version 23.2.0-7636e6b3e9, YMD=2024.09.04 12:55,
   ************* Beginning Zone Sizing Calculations
   ** Warning ** Site:GroundTemperature:BuildingSurface: Some values fall outside the range of 15-25C.
   **   ~~~   ** These values may be inappropriate.  Please consult the Input Output Reference for more details.
   ** Warning ** ProcessScheduleInput: Schedule:Constant="ALWAYS OFF DISCRETE", Blank Schedule Type Limits Name input -- will not be validated.
   ** Warning ** ProcessScheduleInput: Schedule:Constant="ALWAYS ON CONTINUOUS", Blank Schedule Type Limits Name input -- will not be validated.
   ** Warning ** Inside surface heat balance did not converge with Max Temp Difference [C] =0.270 vs Max Allowed Temp Diff [C] =2.000000E-003
   **   ~~~   **  During Sizing, Environment=MIAMI INTL AP ANN CLG .4% CONDNS DB=>MWB, at Simulation time=07/21 17:30 - 17:35
   ** Warning ** Inside surface heat balance did not converge with Max Temp Difference [C] =0.212 vs Max Allowed Temp Diff [C] =2.000000E-003
   **   ~~~   **  During Sizing, Environment=MIAMI INTL AP ANN CLG .4% CONDNS DB=>MWB, at Simulation time=07/21 17:40 - 17:45
   ** Warning ** Calculated design heating load for zone=CORE_ZN_TZONE is zero.
   **   ~~~   ** Check Sizing:Zone and ZoneControl:Thermostat inputs.
   ** Warning ** Calculated design heating load for zone=PERIMETER_ZN_1_TZONE is zero.
   **   ~~~   ** Check Sizing:Zone and ZoneControl:Thermostat inputs.
   ** Warning ** Calculated design heating load for zone=PERIMETER_ZN_2_TZONE is zero.
   **   ~~~   ** Check Sizing:Zone and ZoneControl:Thermostat inputs.
   ** Warning ** Calculated design heating load for zone=PERIMETER_ZN_3_TZONE is zero.
   **   ~~~   ** Check Sizing:Zone and ZoneControl:Thermostat inputs.
   ** Warning ** Calculated design heating load for zone=PERIMETER_ZN_4_TZONE is zero.
   **   ~~~   ** Check Sizing:Zone and ZoneControl:Thermostat inputs.
   ** Warning ** Output:Meter: invalid Key Name="NATURALGAS:FACILITY" - not found.
   ** Warning ** Output:Meter: invalid Key Name="DISTRICTHEATING:FACILITY" - not found.
   ** Warning ** Output:Meter:MeterFileOnly: invalid Key Name="NATURALGAS:FACILITY" - not found.
   ** Warning ** Output:Meter:MeterFileOnly requested for "Electricity:Facility" (TimeStep), already on "Output:Meter". Will report to both eplusout.eso and eplusout.mtr
   ************* Testing Individual Branch Integrity
   ************* All Branches passed integrity testing
   ************* Testing Individual Supply Air Path Integrity
   ************* All Supply Air Paths passed integrity testing
   ************* Testing Individual Return Air Path Integrity
   ************* All Return Air Paths passed integrity testing
   ************* No node connection errors were found.
   ************* Beginning Simulation
   ** Warning ** Processing Monthly Tabular Reports: Variable names not valid for this simulation
   **   ~~~   ** ...use Output:Diagnostics,DisplayExtraWarnings; to show more details on individual variables.
   ** Warning ** Inside surface heat balance did not converge with Max Temp Difference [C] =0.270 vs Max Allowed Temp Diff [C] =2.000000E-003
   **   ~~~   **  Environment=MIAMI INTL AP ANN CLG .4% CONDNS DB=>MWB, at Simulation time=07/21 17:30 - 17:35
   ** Warning ** Inside surface heat balance did not converge with Max Temp Difference [C] =0.212 vs Max Allowed Temp Diff [C] =2.000000E-003
   **   ~~~   **  Environment=MIAMI INTL AP ANN CLG .4% CONDNS DB=>MWB, at Simulation time=07/21 17:40 - 17:45
   ** Warning ** Inside surface heat balance did not converge with Max Temp Difference [C] =3.914E-002 vs Max Allowed Temp Diff [C] =2.000000E-003
   **   ~~~   **  Environment=RUN PERIOD 1, at Simulation time=04/16 16:20 - 16:25
   ** Warning ** Inside surface heat balance did not converge with Max Temp Difference [C] =1.352 vs Max Allowed Temp Diff [C] =2.000000E-003
   **   ~~~   **  Environment=RUN PERIOD 1, at Simulation time=05/22 14:20 - 14:30
   ** Warning ** Inside surface heat balance did not converge with Max Temp Difference [C] =0.253 vs Max Allowed Temp Diff [C] =2.000000E-003
   **   ~~~   **  Environment=RUN PERIOD 1, at Simulation time=05/22 14:30 - 14:35
   ** Warning ** Inside surface heat balance did not converge with Max Temp Difference [C] =0.633 vs Max Allowed Temp Diff [C] =2.000000E-003
   **   ~~~   **  Environment=RUN PERIOD 1, at Simulation time=05/22 14:40 - 14:45
   ** Warning ** Inside surface heat balance did not converge with Max Temp Difference [C] =5.874E-002 vs Max Allowed Temp Diff [C] =2.000000E-003
   **   ~~~   **  Environment=RUN PERIOD 1, at Simulation time=05/29 16:30 - 16:40
   ** Warning ** Inside surface heat balance did not converge with Max Temp Difference [C] =8.329E-002 vs Max Allowed Temp Diff [C] =2.000000E-003
   **   ~~~   **  Environment=RUN PERIOD 1, at Simulation time=05/29 16:40 - 16:50
   ** Warning ** Inside surface heat balance did not converge with Max Temp Difference [C] =9.623E-002 vs Max Allowed Temp Diff [C] =2.000000E-003
   **   ~~~   **  Environment=RUN PERIOD 1, at Simulation time=05/29 16:50 - 17:00
   ** Warning ** Inside surface heat balance did not converge with Max Temp Difference [C] =0.319 vs Max Allowed Temp Diff [C] =2.000000E-003
   **   ~~~   **  Environment=RUN PERIOD 1, at Simulation time=07/05 15:40 - 15:43
   ** Warning ** Inside surface heat balance did not converge with Max Temp Difference [C] =0.218 vs Max Allowed Temp Diff [C] =2.000000E-003
   **   ~~~   **  Environment=RUN PERIOD 1, at Simulation time=07/05 15:50 - 15:53
   ** Warning ** Inside surface heat balance did not converge with Max Temp Difference [C] =2.036E-003 vs Max Allowed Temp Diff [C] =2.000000E-003
   **   ~~~   **  Environment=RUN PERIOD 1, at Simulation time=07/05 16:00 - 16:03
   ** Warning ** Inside surface heat balance did not converge with Max Temp Difference [C] =4.268E-002 vs Max Allowed Temp Diff [C] =2.000000E-003
   **   ~~~   **  Environment=RUN PERIOD 1, at Simulation time=07/27 16:00 - 16:10
   ** Warning ** The resource referenced by LifeCycleCost:UsePriceEscalation= "U.S. AVG  COMMERCIAL-ELECTRICITY" has no energy cost. 
   **   ~~~   ** ... It is likely that the wrong resource is used. The resource should match the meter used in Utility:Tariff.
   ** Warning ** The resource referenced by LifeCycleCost:UsePriceEscalation= "U.S. AVG  COMMERCIAL-DISTILLATE OIL" has no energy cost. 
   **   ~~~   ** ... It is likely that the wrong resource is used. The resource should match the meter used in Utility:Tariff.
   ** Warning ** The resource referenced by LifeCycleCost:UsePriceEscalation= "U.S. AVG  COMMERCIAL-RESIDUAL OIL" has no energy cost. 
   **   ~~~   ** ... It is likely that the wrong resource is used. The resource should match the meter used in Utility:Tariff.
   ** Warning ** The resource referenced by LifeCycleCost:UsePriceEscalation= "U.S. AVG  COMMERCIAL-NATURAL GAS" has no energy cost. 
   **   ~~~   ** ... It is likely that the wrong resource is used. The resource should match the meter used in Utility:Tariff.
   ** Warning ** The resource referenced by LifeCycleCost:UsePriceEscalation= "U.S. AVG  COMMERCIAL-COAL" has no energy cost. 
   **   ~~~   ** ... It is likely that the wrong resource is used. The resource should match the meter used in Utility:Tariff.
   ************* Simulation Error Summary *************
   ** Warning ** The following Report Variables were requested but not generated -- check.rdd file
   **   ~~~   ** Either the IDF did not contain these elements, the variable name is misspelled,
   **   ~~~   ** or the requested variable is an advanced output which requires Output : Diagnostics, DisplayAdvancedReportVariables;
   ************* Key=*, VarName=WIND SPEED, Frequency=Hourly
   ************* There are 2 unused schedules in input.
   ************* There are 2 unused week schedules in input.
   ************* There are 11 unused day schedules in input.
   ************* Use Output:Diagnostics,DisplayUnusedSchedules; to see them.
   *************
   ************* ===== Recurring Error Summary =====
   ************* The following recurring error messages occurred.
   *************
   *************  ** Warning ** Inside surface heat balance convergence problem continues
   *************  **   ~~~   **   This error occurred 61 total times;
   *************  **   ~~~   **   during Warmup 0 times;
   *************  **   ~~~   **   during Sizing 0 times.
   *************  **   ~~~   **   Max=5.190230 [C]  Min=0.002506 [C]
   *************
   ************* EnergyPlus Warmup Error Summary. During Warmup: 0 Warning; 0 Severe Errors.
   ************* EnergyPlus Sizing Error Summary. During Sizing: 10 Warning; 0 Severe Errors.
   ************* EnergyPlus Completed Successfully-- 95 Warning; 0 Severe Errors; Elapsed Time=00hr 00min  3.77sec
