Program Version,EnergyPlus, Version 23.2.0-7636e6b3e9, YMD=2024.09.08 23:41,
   ************* Beginning Zone Sizing Calculations
   ** Warning ** Site:GroundTemperature:BuildingSurface: Some values fall outside the range of 15-25C.
   **   ~~~   ** These values may be inappropriate.  Please consult the Input Output Reference for more details.
   ** Warning ** ProcessScheduleInput: Schedule:Constant="ALWAYS ON DISCRETE", Blank Schedule Type Limits Name input -- will not be validated.
   ** Warning ** ProcessScheduleInput: Schedule:Constant="ALWAYS OFF DISCRETE", Blank Schedule Type Limits Name input -- will not be validated.
   ** Warning ** ProcessScheduleInput: Schedule:Constant="ALWAYS ON CONTINUOUS", Blank Schedule Type Limits Name input -- will not be validated.
   ** Warning ** CheckUsedConstructions: There are 1 nominally unused constructions in input.
   **   ~~~   ** For explicit details on each unused construction, use Output:Diagnostics,DisplayExtraWarnings;
   ** Warning ** GetElectricEIRChillerInput: Chiller:Electric:EIR="90.1-2013 AIRCOOLED   CHILLER 0"
   **   ~~~   ** Capacity ratio as a function of temperature curve output is not equal to 1.0 (+ or - 10%) at reference conditions.
   **   ~~~   ** Curve output at reference conditions = 1.105
   ** Warning ** Inside surface heat balance did not converge with Max Temp Difference [C] =0.270 vs Max Allowed Temp Diff [C] =2.000000E-003
   **   ~~~   **  During Sizing, Environment=MIAMI INTL AP ANN CLG .4% CONDNS DB=>MWB, at Simulation time=07/21 17:30 - 17:35
   ** Warning ** Inside surface heat balance did not converge with Max Temp Difference [C] =0.212 vs Max Allowed Temp Diff [C] =2.000000E-003
   **   ~~~   **  During Sizing, Environment=MIAMI INTL AP ANN CLG .4% CONDNS DB=>MWB, at Simulation time=07/21 17:40 - 17:45
   ** Warning ** Calculated design heating load for zone=CORE_ZN_TZONE is zero.
   **   ~~~   ** Check Sizing:Zone and ZoneControl:Thermostat inputs.
   ** Warning ** Calculated design heating load for zone=PERIMETER_ZN_1_TZONE is zero.
   **   ~~~   ** Check Sizing:Zone and ZoneControl:Thermostat inputs.
   ** Warning ** Calculated design heating load for zone=PERIMETER_ZN_2_TZONE is zero.
   **   ~~~   ** Check Sizing:Zone and ZoneControl:Thermostat inputs.
   ** Warning ** Calculated design heating load for zone=PERIMETER_ZN_3_TZONE is zero.
   **   ~~~   ** Check Sizing:Zone and ZoneControl:Thermostat inputs.
   ** Warning ** Calculated design heating load for zone=PERIMETER_ZN_4_TZONE is zero.
   **   ~~~   ** Check Sizing:Zone and ZoneControl:Thermostat inputs.
   ************* Beginning Plant Sizing Calculations
   ** Warning ** SizePlantLoop: Calculated Plant Sizing Design Volume Flow Rate=[0.00] is too small. Set to 0.0
   **   ~~~   ** ..occurs for PlantLoop=HOT WATER LOOP
   ** Warning ** SizePump: Calculated Pump Nominal Volume Flow Rate=[0.00] is too small. Set to 0.0
   **   ~~~   ** ..occurs for Pump=HOT WATER LOOP PUMP
   ** Warning ** Check input. Pump nominal power or motor efficiency is set to 0, for pump=HOT WATER LOOP PUMP
   ** Warning ** Check input. Pump nominal flow rate is set or calculated = 0, for pump=HOT WATER LOOP PUMP
   ** Warning ** Output:Meter: invalid Key Name="NATURALGAS:FACILITY" - not found.
   ** Warning ** Output:Meter: invalid Key Name="DISTRICTCOOLING:FACILITY" - not found.
   ** Warning ** Output:Meter: invalid Key Name="DISTRICTHEATING:FACILITY" - not found.
   ** Warning ** Output:Meter:MeterFileOnly: invalid Key Name="NATURALGAS:FACILITY" - not found.
   ** Warning ** Output:Meter:MeterFileOnly requested for "Electricity:Facility" (TimeStep), already on "Output:Meter". Will report to both eplusout.eso and eplusout.mtr
   ************* Testing Individual Branch Integrity
   ************* All Branches passed integrity testing
   ************* Testing Individual Supply Air Path Integrity
   ************* All Supply Air Paths passed integrity testing
   ************* Testing Individual Return Air Path Integrity
   ************* All Return Air Paths passed integrity testing
   ************* No node connection errors were found.
   ************* Beginning Simulation
   ** Warning ** Processing Monthly Tabular Reports: Variable names not valid for this simulation
   **   ~~~   ** ...use Output:Diagnostics,DisplayExtraWarnings; to show more details on individual variables.
   ** Warning ** Inside surface heat balance did not converge with Max Temp Difference [C] =1.350 vs Max Allowed Temp Diff [C] =2.000000E-003
   **   ~~~   **  Environment=RUN PERIOD 1, at Simulation time=05/22 14:20 - 14:25
   ** Warning ** Inside surface heat balance did not converge with Max Temp Difference [C] =1.172E-002 vs Max Allowed Temp Diff [C] =2.000000E-003
   **   ~~~   **  Environment=RUN PERIOD 1, at Simulation time=05/22 14:20 - 14:25
   ** Warning ** Inside surface heat balance did not converge with Max Temp Difference [C] =0.928 vs Max Allowed Temp Diff [C] =2.000000E-003
   **   ~~~   **  Environment=RUN PERIOD 1, at Simulation time=05/22 14:30 - 14:35
   ** Warning ** Inside surface heat balance did not converge with Max Temp Difference [C] =0.320 vs Max Allowed Temp Diff [C] =2.000000E-003
   **   ~~~   **  Environment=RUN PERIOD 1, at Simulation time=05/22 14:30 - 14:35
   ** Warning ** Inside surface heat balance did not converge with Max Temp Difference [C] =0.628 vs Max Allowed Temp Diff [C] =2.000000E-003
   **   ~~~   **  Environment=RUN PERIOD 1, at Simulation time=05/22 14:40 - 14:45
   ** Warning ** Inside surface heat balance did not converge with Max Temp Difference [C] =0.411 vs Max Allowed Temp Diff [C] =2.000000E-003
   **   ~~~   **  Environment=RUN PERIOD 1, at Simulation time=05/22 14:40 - 14:45
   ** Warning ** Inside surface heat balance did not converge with Max Temp Difference [C] =0.503 vs Max Allowed Temp Diff [C] =2.000000E-003
   **   ~~~   **  Environment=RUN PERIOD 1, at Simulation time=05/22 14:50 - 14:55
   ** Warning ** Inside surface heat balance did not converge with Max Temp Difference [C] =0.249 vs Max Allowed Temp Diff [C] =2.000000E-003
   **   ~~~   **  Environment=RUN PERIOD 1, at Simulation time=05/29 16:30 - 16:33
   ** Warning ** Inside surface heat balance did not converge with Max Temp Difference [C] =9.395E-002 vs Max Allowed Temp Diff [C] =2.000000E-003
   **   ~~~   **  Environment=RUN PERIOD 1, at Simulation time=05/29 16:40 - 16:45
   ** Warning ** Inside surface heat balance did not converge with Max Temp Difference [C] =0.104 vs Max Allowed Temp Diff [C] =2.000000E-003
   **   ~~~   **  Environment=RUN PERIOD 1, at Simulation time=05/29 16:40 - 16:45
   ** Warning ** Inside surface heat balance did not converge with Max Temp Difference [C] =4.466E-002 vs Max Allowed Temp Diff [C] =2.000000E-003
   **   ~~~   **  Environment=RUN PERIOD 1, at Simulation time=05/29 16:50 - 16:55
   ** Warning ** Inside surface heat balance did not converge with Max Temp Difference [C] =5.512E-002 vs Max Allowed Temp Diff [C] =2.000000E-003
   **   ~~~   **  Environment=RUN PERIOD 1, at Simulation time=05/29 16:50 - 16:55
   ** Warning ** Inside surface heat balance did not converge with Max Temp Difference [C] =2.643E-003 vs Max Allowed Temp Diff [C] =2.000000E-003
   **   ~~~   **  Environment=RUN PERIOD 1, at Simulation time=06/03 17:10 - 17:20
   ** Warning ** The resource referenced by LifeCycleCost:UsePriceEscalation= "U.S. AVG  COMMERCIAL-ELECTRICITY" has no energy cost. 
   **   ~~~   ** ... It is likely that the wrong resource is used. The resource should match the meter used in Utility:Tariff.
   ** Warning ** The resource referenced by LifeCycleCost:UsePriceEscalation= "U.S. AVG  COMMERCIAL-DISTILLATE OIL" has no energy cost. 
   **   ~~~   ** ... It is likely that the wrong resource is used. The resource should match the meter used in Utility:Tariff.
   ** Warning ** The resource referenced by LifeCycleCost:UsePriceEscalation= "U.S. AVG  COMMERCIAL-RESIDUAL OIL" has no energy cost. 
   **   ~~~   ** ... It is likely that the wrong resource is used. The resource should match the meter used in Utility:Tariff.
   ** Warning ** The resource referenced by LifeCycleCost:UsePriceEscalation= "U.S. AVG  COMMERCIAL-NATURAL GAS" has no energy cost. 
   **   ~~~   ** ... It is likely that the wrong resource is used. The resource should match the meter used in Utility:Tariff.
   ** Warning ** The resource referenced by LifeCycleCost:UsePriceEscalation= "U.S. AVG  COMMERCIAL-COAL" has no energy cost. 
   **   ~~~   ** ... It is likely that the wrong resource is used. The resource should match the meter used in Utility:Tariff.
   ************* Simulation Error Summary *************
   ** Warning ** The following Report Variables were requested but not generated -- check.rdd file
   **   ~~~   ** Either the IDF did not contain these elements, the variable name is misspelled,
   **   ~~~   ** or the requested variable is an advanced output which requires Output : Diagnostics, DisplayAdvancedReportVariables;
   ************* Key=*, VarName=WIND SPEED, Frequency=Hourly
   ************* Key=*, VarName=AIR SYSTEM ELECTRICITY ENERGY, Frequency=Hourly
   ************* Key=*, VarName=AIR SYSTEM TOTAL HEATING ENERGY, Frequency=Hourly
   ************* Key=*, VarName=AIR SYSTEM TOTAL COOLING ENERGY, Frequency=Hourly
   ************* There are 2 unused schedules in input.
   ************* There are 2 unused week schedules in input.
   ************* There are 11 unused day schedules in input.
   ************* Use Output:Diagnostics,DisplayUnusedSchedules; to see them.
   *************
   ************* ===== Recurring Error Summary =====
   ************* The following recurring error messages occurred.
   *************
   *************  ** Warning ** Inside surface heat balance convergence problem continues
   *************  **   ~~~   **   This error occurred 133 total times;
   *************  **   ~~~   **   during Warmup 0 times;
   *************  **   ~~~   **   during Sizing 0 times.
   *************  **   ~~~   **   Max=5.677426 [C]  Min=0.002072 [C]
   *************
   *************
   ************* ===== Final Error Summary =====
   ************* The following error categories occurred.  Consider correcting or noting.
   ************* Nominally Unused Constructions
   ************* ..The nominally unused constructions warning is provided to alert you to potential conditions that can cause
   ************* ..extra time during simulation. Each construction is calculated by the algorithm indicated in the HeatBalanceAlgorithm
   ************* ..object. You may remove the constructions indicated (when you use the DisplayExtraWarnings option).
   *************
   ************* EnergyPlus Warmup Error Summary. During Warmup: 0 Warning; 0 Severe Errors.
   ************* EnergyPlus Sizing Error Summary. During Sizing: 13 Warning; 0 Severe Errors.
   ************* EnergyPlus Completed Successfully-- 175 Warning; 0 Severe Errors; Elapsed Time=00hr 00min 37.41sec
