{
   "completed_at" : "20240821T140932Z",
   "completed_status" : "Success",
   "created_at" : "20240821T140931Z",
   "current_step" : 0,
   "eplusout_err" : "Program Version,EnergyPlus, Version 23.2.0-7636e6b3e9, YMD=2024.08.21 10:09,\n   ************* Beginning Zone Sizing Calculations\n   ** Warning ** Site:GroundTemperature:BuildingSurface: Some values fall outside the range of 15-25C.\n   **   ~~~   ** These values may be inappropriate.  Please consult the Input Output Reference for more details.\n   ** Warning ** ProcessScheduleInput: Schedule:Day:Interval=\"CORE_ZN_TZONE RADIANT SYSTEM OCCUPIED SCHEDULE DEFAULT\", Blank Schedule Type Limits Name input -- will not be validated.\n   ** Warning ** ProcessScheduleInput: Schedule:Day:Interval=\"CORE_ZN_TZONE RADIANT SYSTEM OCCUPIED SCHEDULE SUMMER DESIGN DAY\", Blank Schedule Type Limits Name input -- will not be validated.\n   ** Warning ** ProcessScheduleInput: Schedule:Day:Interval=\"CORE_ZN_TZONE RADIANT SYSTEM OCCUPIED SCHEDULE SUNDAY\", Blank Schedule Type Limits Name input -- will not be validated.\n   ** Warning ** ProcessScheduleInput: Schedule:Day:Interval=\"CORE_ZN_TZONE RADIANT SYSTEM OCCUPIED SCHEDULE WINTER DESIGN DAY\", Blank Schedule Type Limits Name input -- will not be validated.\n   ** Warning ** ProcessScheduleInput: Schedule:Day:Interval=\"PERIMETER_ZN_1_TZONE RADIANT SYSTEM OCCUPIED SCHEDULE DEFAULT\", Blank Schedule Type Limits Name input -- will not be validated.\n   ** Warning ** ProcessScheduleInput: Schedule:Day:Interval=\"PERIMETER_ZN_1_TZONE RADIANT SYSTEM OCCUPIED SCHEDULE SUMMER DESIGN DAY\", Blank Schedule Type Limits Name input -- will not be validated.\n   ** Warning ** ProcessScheduleInput: Schedule:Day:Interval=\"PERIMETER_ZN_1_TZONE RADIANT SYSTEM OCCUPIED SCHEDULE SUNDAY\", Blank Schedule Type Limits Name input -- will not be validated.\n   ** Warning ** ProcessScheduleInput: Schedule:Day:Interval=\"PERIMETER_ZN_1_TZONE RADIANT SYSTEM OCCUPIED SCHEDULE WINTER DESIGN DAY\", Blank Schedule Type Limits Name input -- will not be validated.\n   ** Warning ** ProcessScheduleInput: Schedule:Day:Interval=\"PERIMETER_ZN_2_TZONE RADIANT SYSTEM OCCUPIED SCHEDULE DEFAULT\", Blank Schedule Type Limits Name input -- will not be validated.\n   ** Warning ** ProcessScheduleInput: Schedule:Day:Interval=\"PERIMETER_ZN_2_TZONE RADIANT SYSTEM OCCUPIED SCHEDULE SUMMER DESIGN DAY\", Blank Schedule Type Limits Name input -- will not be validated.\n   ** Warning ** ProcessScheduleInput: Schedule:Day:Interval=\"PERIMETER_ZN_2_TZONE RADIANT SYSTEM OCCUPIED SCHEDULE SUNDAY\", Blank Schedule Type Limits Name input -- will not be validated.\n   ** Warning ** ProcessScheduleInput: Schedule:Day:Interval=\"PERIMETER_ZN_2_TZONE RADIANT SYSTEM OCCUPIED SCHEDULE WINTER DESIGN DAY\", Blank Schedule Type Limits Name input -- will not be validated.\n   ** Warning ** ProcessScheduleInput: Schedule:Day:Interval=\"PERIMETER_ZN_3_TZONE RADIANT SYSTEM OCCUPIED SCHEDULE DEFAULT\", Blank Schedule Type Limits Name input -- will not be validated.\n   ** Warning ** ProcessScheduleInput: Schedule:Day:Interval=\"PERIMETER_ZN_3_TZONE RADIANT SYSTEM OCCUPIED SCHEDULE SUMMER DESIGN DAY\", Blank Schedule Type Limits Name input -- will not be validated.\n   ** Warning ** ProcessScheduleInput: Schedule:Day:Interval=\"PERIMETER_ZN_3_TZONE RADIANT SYSTEM OCCUPIED SCHEDULE SUNDAY\", Blank Schedule Type Limits Name input -- will not be validated.\n   ** Warning ** ProcessScheduleInput: Schedule:Day:Interval=\"PERIMETER_ZN_3_TZONE RADIANT SYSTEM OCCUPIED SCHEDULE WINTER DESIGN DAY\", Blank Schedule Type Limits Name input -- will not be validated.\n   ** Warning ** ProcessScheduleInput: Schedule:Day:Interval=\"PERIMETER_ZN_4_TZONE RADIANT SYSTEM OCCUPIED SCHEDULE DEFAULT\", Blank Schedule Type Limits Name input -- will not be validated.\n   ** Warning ** ProcessScheduleInput: Schedule:Day:Interval=\"PERIMETER_ZN_4_TZONE RADIANT SYSTEM OCCUPIED SCHEDULE SUMMER DESIGN DAY\", Blank Schedule Type Limits Name input -- will not be validated.\n   ** Warning ** ProcessScheduleInput: Schedule:Day:Interval=\"PERIMETER_ZN_4_TZONE RADIANT SYSTEM OCCUPIED SCHEDULE SUNDAY\", Blank Schedule Type Limits Name input -- will not be validated.\n   ** Warning ** ProcessScheduleInput: Schedule:Day:Interval=\"PERIMETER_ZN_4_TZONE RADIANT SYSTEM OCCUPIED SCHEDULE WINTER DESIGN DAY\", Blank Schedule Type Limits Name input -- will not be validated.\n   ** Warning ** ProcessScheduleInput: Schedule:Day:Interval=\"SCHEDULE DAY 10\", Blank Schedule Type Limits Name input -- will not be validated.\n   ** Warning ** ProcessScheduleInput: Schedule:Day:Interval=\"SCHEDULE DAY 11\", Blank Schedule Type Limits Name input -- will not be validated.\n   ** Warning ** ProcessScheduleInput: Schedule:Day:Interval=\"SCHEDULE DAY 12\", Blank Schedule Type Limits Name input -- will not be validated.\n   ** Warning ** ProcessScheduleInput: Schedule:Day:Interval=\"SCHEDULE DAY 13\", Blank Schedule Type Limits Name input -- will not be validated.\n   ** Warning ** ProcessScheduleInput: Schedule:Day:Interval=\"SCHEDULE DAY 14\", Blank Schedule Type Limits Name input -- will not be validated.\n   ** Warning ** ProcessScheduleInput: Schedule:Day:Interval=\"SCHEDULE DAY 15\", Blank Schedule Type Limits Name input -- will not be validated.\n   ** Warning ** ProcessScheduleInput: Schedule:Day:Interval=\"SCHEDULE DAY 16\", Blank Schedule Type Limits Name input -- will not be validated.\n   ** Warning ** ProcessScheduleInput: Schedule:Day:Interval=\"SCHEDULE DAY 7\", Blank Schedule Type Limits Name input -- will not be validated.\n   ** Warning ** ProcessScheduleInput: Schedule:Day:Interval=\"SCHEDULE DAY 8\", Blank Schedule Type Limits Name input -- will not be validated.\n   ** Warning ** ProcessScheduleInput: Schedule:Day:Interval=\"SCHEDULE DAY 9\", Blank Schedule Type Limits Name input -- will not be validated.\n   ** Warning ** ProcessScheduleInput: Schedule:Year=\"CORE_ZN_TZONE RADIANT SYSTEM OCCUPIED SCHEDULE\", Blank Schedule Type Limits Name input -- will not be validated.\n   ** Warning ** ProcessScheduleInput: Schedule:Year=\"PERIMETER_ZN_1_TZONE RADIANT SYSTEM OCCUPIED SCHEDULE\", Blank Schedule Type Limits Name input -- will not be validated.\n   ** Warning ** ProcessScheduleInput: Schedule:Year=\"PERIMETER_ZN_2_TZONE RADIANT SYSTEM OCCUPIED SCHEDULE\", Blank Schedule Type Limits Name input -- will not be validated.\n   ** Warning ** ProcessScheduleInput: Schedule:Year=\"PERIMETER_ZN_3_TZONE RADIANT SYSTEM OCCUPIED SCHEDULE\", Blank Schedule Type Limits Name input -- will not be validated.\n   ** Warning ** ProcessScheduleInput: Schedule:Year=\"PERIMETER_ZN_4_TZONE RADIANT SYSTEM OCCUPIED SCHEDULE\", Blank Schedule Type Limits Name input -- will not be validated.\n   ** Warning ** ProcessScheduleInput: Schedule:Constant=\"ALWAYS OFF DISCRETE\", Blank Schedule Type Limits Name input -- will not be validated.\n   ** Warning ** ProcessScheduleInput: Schedule:Constant=\"ALWAYS ON CONTINUOUS\", Blank Schedule Type Limits Name input -- will not be validated.\n   ** Warning ** Construction RADIANT EXTERIOR CEILING SLAB CONSTRUCTION must have a temperature calculation that is between two layers\n   **   ~~~   ** The temperature calculation after layer parameter has been set to one less than the number of layers.\n   ** Warning ** Construction RADIANT EXTERIOR SLAB CONSTRUCTION must have a temperature calculation that is between two layers\n   **   ~~~   ** The temperature calculation after layer parameter has been set to one less than the number of layers.\n   ** Warning ** Construction RADIANT GROUND SLAB CONSTRUCTION must have a temperature calculation that is between two layers\n   **   ~~~   ** The temperature calculation after layer parameter has been set to one less than the number of layers.\n   ** Warning ** CheckUsedConstructions: There are 6 nominally unused constructions in input.\n   **   ~~~   ** For explicit details on each unused construction, use Output:Diagnostics,DisplayExtraWarnings;\n   ** Warning ** GetElectricEIRChillerInput: Chiller:Electric:EIR=\"90.1-2013 AIRCOOLED   CHILLER 0\"\n   **   ~~~   ** Capacity ratio as a function of temperature curve output is not equal to 1.0 (+ or - 10%) at reference conditions.\n   **   ~~~   ** Curve output at reference conditions = 1.105\n   ** Warning ** Inside surface heat balance did not converge with Max Temp Difference [C] =0.357 vs Max Allowed Temp Diff [C] =2.000000E-003\n   **   ~~~   **  During Sizing, Environment=SINGAPORE ANN CLG .4% CONDNS DB=>MWB, at Simulation time=06/21 17:50 - 17:55\n   ** Warning ** Inside surface heat balance did not converge with Max Temp Difference [C] =2.224E-002 vs Max Allowed Temp Diff [C] =2.000000E-003\n   **   ~~~   **  During Sizing, Environment=SINGAPORE ANN CLG .4% CONDNS DB=>MWB, at Simulation time=06/21 18:00 - 18:05\n   ** Warning ** Calculated design heating load for zone=CORE_ZN_TZONE is zero.\n   **   ~~~   ** Check Sizing:Zone and ZoneControl:Thermostat inputs.\n   ** Warning ** Calculated design heating load for zone=PERIMETER_ZN_1_TZONE is zero.\n   **   ~~~   ** Check Sizing:Zone and ZoneControl:Thermostat inputs.\n   ** Warning ** Calculated design heating load for zone=PERIMETER_ZN_2_TZONE is zero.\n   **   ~~~   ** Check Sizing:Zone and ZoneControl:Thermostat inputs.\n   ** Warning ** Calculated design heating load for zone=PERIMETER_ZN_3_TZONE is zero.\n   **   ~~~   ** Check Sizing:Zone and ZoneControl:Thermostat inputs.\n   ** Warning ** Calculated design heating load for zone=PERIMETER_ZN_4_TZONE is zero.\n   **   ~~~   ** Check Sizing:Zone and ZoneControl:Thermostat inputs.\n   ************* Beginning System Sizing Calculations\n   ** Warning ** ManageSizing: Calculated Heating Design Air Flow Rate for System=5 ZONE DOAS is zero.\n   **   ~~~   ** Check Sizing:Zone and ZoneControl:Thermostat inputs.\n   ************* Beginning Plant Sizing Calculations\n   ** Warning ** GetOAControllerInputs: Controller:MechanicalVentilation=\"5 ZONE DOAS MECHANICAL VENTILATION CONTROLLER\"\n   **   ~~~   ** Cannot locate a matching DesignSpecification:ZoneAirDistribution object for Zone=\"CORE_ZN_TZONE\".\n   **   ~~~   ** Using default zone air distribution effectiveness of 1.0 for heating and cooling.\n   ** Warning ** GetOAControllerInputs: Controller:MechanicalVentilation=\"5 ZONE DOAS MECHANICAL VENTILATION CONTROLLER\"\n   **   ~~~   ** Cannot locate a matching DesignSpecification:ZoneAirDistribution object for Zone=\"PERIMETER_ZN_1_TZONE\".\n   **   ~~~   ** Using default zone air distribution effectiveness of 1.0 for heating and cooling.\n   ** Warning ** GetOAControllerInputs: Controller:MechanicalVentilation=\"5 ZONE DOAS MECHANICAL VENTILATION CONTROLLER\"\n   **   ~~~   ** Cannot locate a matching DesignSpecification:ZoneAirDistribution object for Zone=\"PERIMETER_ZN_2_TZONE\".\n   **   ~~~   ** Using default zone air distribution effectiveness of 1.0 for heating and cooling.\n   ** Warning ** GetOAControllerInputs: Controller:MechanicalVentilation=\"5 ZONE DOAS MECHANICAL VENTILATION CONTROLLER\"\n   **   ~~~   ** Cannot locate a matching DesignSpecification:ZoneAirDistribution object for Zone=\"PERIMETER_ZN_3_TZONE\".\n   **   ~~~   ** Using default zone air distribution effectiveness of 1.0 for heating and cooling.\n   ** Warning ** GetOAControllerInputs: Controller:MechanicalVentilation=\"5 ZONE DOAS MECHANICAL VENTILATION CONTROLLER\"\n   **   ~~~   ** Cannot locate a matching DesignSpecification:ZoneAirDistribution object for Zone=\"PERIMETER_ZN_4_TZONE\".\n   **   ~~~   ** Using default zone air distribution effectiveness of 1.0 for heating and cooling.\n   ** Warning ** GetDXCoils: Coil:Heating:DX:SingleSpeed=\"5 ZONE DOAS HTG COIL\" curve values\n   **   ~~~   ** ... Defrost Energy Input Ratio Function of Temperature Curve Name = 5 ZONE DOAS HTG COIL DEFROST EIR FUNC OF TEMP CURVE output is not equal to 1.0 (+ or - 10%) at rated conditions.\n   **   ~~~   ** ... Curve output at rated conditions = 0.788\n   ** Warning ** CalcTwoSpeedDXCoilStandardRating: Did not find an appropriate fan associated with DX coil named = \"5 ZONE DOAS 2SPD DX CLG COIL\". Standard Ratings will not be calculated.\n   ** Warning ** Check input. Pump nominal power or motor efficiency is set to 0, for pump=HOT WATER LOOP PUMP\n   ** Warning ** Check input. Pump nominal flow rate is set or calculated = 0, for pump=HOT WATER LOOP PUMP\n   ** Warning ** Output:Meter: invalid Key Name=\"NATURALGAS:FACILITY\" - not found.\n   ** Warning ** Output:Meter: invalid Key Name=\"DISTRICTCOOLING:FACILITY\" - not found.\n   ** Warning ** Output:Meter: invalid Key Name=\"DISTRICTHEATING:FACILITY\" - not found.\n   ** Warning ** Output:Meter:MeterFileOnly: invalid Key Name=\"NATURALGAS:FACILITY\" - not found.\n   ** Warning ** Output:Meter:MeterFileOnly requested for \"Electricity:Facility\" (TimeStep), already on \"Output:Meter\". Will report to both eplusout.eso and eplusout.mtr\n   ************* Testing Individual Branch Integrity\n   ************* All Branches passed integrity testing\n   ************* Testing Individual Supply Air Path Integrity\n   ************* All Supply Air Paths passed integrity testing\n   ************* Testing Individual Return Air Path Integrity\n   ************* All Return Air Paths passed integrity testing\n   ************* No node connection errors were found.\n   ** Warning ** Output:Table:Monthly requested with SimulationControl Run Simulation for Weather File Run Periods set to No so Output:Table:Monthly will not be generated\n   ** Warning ** ZoneHVAC:LowTemperatureRadiant:VariableFlow [PERIMETER_ZN_2_TZONE RADIANT LOOP]\n   **   ~~~   ** Surface [PERIMETER_ZN_2_ENVELOPE_4] temperature below dew-point temperature--potential for condensation exists\n   **   ~~~   ** Flow to the radiant system will be shut-off to avoid condensation\n   **   ~~~   ** Predicted radiant system surface temperature = 20.48\n   **   ~~~   ** Zone dew-point temperature + safety delta T= 20.49\n   **   ~~~   **  Environment=SINGAPORE ANN CLG .4% CONDNS DB=>MWB HVAC Sizing Pass 1, at Simulation time=06/21 09:50 - 09:55\n   **   ~~~   ** Note that a 1.0000 C safety was chosen in the input for the shut-off criteria\n   **   ~~~   ** Note also that this affects all surfaces that are part of this radiant system\n   ** Warning ** Inside surface heat balance did not converge with Max Temp Difference [C] =0.357 vs Max Allowed Temp Diff [C] =2.000000E-003\n   **   ~~~   **  Environment=SINGAPORE ANN CLG .4% CONDNS DB=>MWB HVAC Sizing Pass 1, at Simulation time=06/21 17:50 - 17:55\n   ** Warning ** Inside surface heat balance did not converge with Max Temp Difference [C] =2.202E-002 vs Max Allowed Temp Diff [C] =2.000000E-003\n   **   ~~~   **  Environment=SINGAPORE ANN CLG .4% CONDNS DB=>MWB HVAC Sizing Pass 1, at Simulation time=06/21 18:00 - 18:05\n   ** Warning ** SizePlantLoop: Calculated Plant Sizing Design Volume Flow Rate=[0.00] is too small. Set to 0.0\n   **   ~~~   ** ..occurs for PlantLoop=HOT WATER LOOP\n   ** Warning ** SizePump: Calculated Pump Nominal Volume Flow Rate=[0.00] is too small. Set to 0.0\n   **   ~~~   ** ..occurs for Pump=HOT WATER LOOP PUMP\n   ************* Beginning Simulation\n   ** Warning ** Inside surface heat balance did not converge with Max Temp Difference [C] =0.357 vs Max Allowed Temp Diff [C] =2.000000E-003\n   **   ~~~   **  Environment=SINGAPORE ANN CLG .4% CONDNS DB=>MWB, at Simulation time=06/21 17:50 - 17:55\n   ** Warning ** Inside surface heat balance did not converge with Max Temp Difference [C] =2.202E-002 vs Max Allowed Temp Diff [C] =2.000000E-003\n   **   ~~~   **  Environment=SINGAPORE ANN CLG .4% CONDNS DB=>MWB, at Simulation time=06/21 18:00 - 18:05\n   ************* Simulation Error Summary *************\n   ************* There are 8 unused objects in input.\n   ************* Use Output:Diagnostics,DisplayUnusedObjects; to see them.\n   ************* There are 16 unused schedules in input.\n   ************* There are 16 unused week schedules in input.\n   ************* There are 40 unused day schedules in input.\n   ************* Use Output:Diagnostics,DisplayUnusedSchedules; to see them.\n   *************\n   ************* ===== Recurring Error Summary =====\n   ************* The following recurring error messages occurred.\n   *************\n   *************  ** Warning ** ZoneHVAC:LowTemperatureRadiant:VariableFlow [PERIMETER_ZN_2_TZONE RADIANT LOOP] condensation shut-off occurrence continues.\n   *************  **   ~~~   **   This error occurred 4 total times;\n   *************  **   ~~~   **   during Warmup 0 times;\n   *************  **   ~~~   **   during Sizing 0 times.\n   *************  **   ~~~   **   Max=19.490459 C  Min=19.478923 C\n   *************\n   *************\n   ************* ===== Final Error Summary =====\n   ************* The following error categories occurred.  Consider correcting or noting.\n   ************* Nominally Unused Constructions\n   ************* ..The nominally unused constructions warning is provided to alert you to potential conditions that can cause\n   ************* ..extra time during simulation. Each construction is calculated by the algorithm indicated in the HeatBalanceAlgorithm\n   ************* ..object. You may remove the constructions indicated (when you use the DisplayExtraWarnings option).\n   *************\n   ************* EnergyPlus Warmup Error Summary. During Warmup: 0 Warning; 0 Severe Errors.\n   ************* EnergyPlus Sizing Error Summary. During Sizing: 51 Warning; 0 Severe Errors.\n   ************* EnergyPlus Completed Successfully-- 76 Warning; 0 Severe Errors; Elapsed Time=00hr 00min  0.83sec\n",
   "file_paths" : 
   [
      "/home/chenkianwee/kianwee_work/code_workspace/10.ifc2osmod/ifc2osmod/results/osmod/small_office_wrkflw/run/000_radiant_slab_with_doas/radiant_sizing_run/generated_files",
      "./files",
      "./weather",
      "../../files",
      "../../weather",
      "./"
   ],
   "hash" : "CF2ED3E9",
   "run_options" : null,
   "seed_file" : "in.osm",
   "started_at" : "20240821T140931Z",
   "steps" : [],
   "updated_at" : "20240821T140932Z",
   "weather_file" : "in.epw"
}