{
   "completed_at" : "20240904T165554Z",
   "completed_status" : "Success",
   "created_at" : "20240904T165544Z",
   "current_step" : 2,
   "eplusout_err" : "Program Version,EnergyPlus, Version 23.2.0-7636e6b3e9, YMD=2024.09.04 12:55,\n   ************* Beginning Zone Sizing Calculations\n   ** Warning ** Site:GroundTemperature:BuildingSurface: Some values fall outside the range of 15-25C.\n   **   ~~~   ** These values may be inappropriate.  Please consult the Input Output Reference for more details.\n   ** Warning ** ProcessScheduleInput: Schedule:Constant=\"ALWAYS OFF DISCRETE\", Blank Schedule Type Limits Name input -- will not be validated.\n   ** Warning ** ProcessScheduleInput: Schedule:Constant=\"ALWAYS ON CONTINUOUS\", Blank Schedule Type Limits Name input -- will not be validated.\n   ** Warning ** Inside surface heat balance did not converge with Max Temp Difference [C] =0.270 vs Max Allowed Temp Diff [C] =2.000000E-003\n   **   ~~~   **  During Sizing, Environment=MIAMI INTL AP ANN CLG .4% CONDNS DB=>MWB, at Simulation time=07/21 17:30 - 17:35\n   ** Warning ** Inside surface heat balance did not converge with Max Temp Difference [C] =0.212 vs Max Allowed Temp Diff [C] =2.000000E-003\n   **   ~~~   **  During Sizing, Environment=MIAMI INTL AP ANN CLG .4% CONDNS DB=>MWB, at Simulation time=07/21 17:40 - 17:45\n   ** Warning ** Calculated design heating load for zone=CORE_ZN_TZONE is zero.\n   **   ~~~   ** Check Sizing:Zone and ZoneControl:Thermostat inputs.\n   ** Warning ** Calculated design heating load for zone=PERIMETER_ZN_1_TZONE is zero.\n   **   ~~~   ** Check Sizing:Zone and ZoneControl:Thermostat inputs.\n   ** Warning ** Calculated design heating load for zone=PERIMETER_ZN_2_TZONE is zero.\n   **   ~~~   ** Check Sizing:Zone and ZoneControl:Thermostat inputs.\n   ** Warning ** Calculated design heating load for zone=PERIMETER_ZN_3_TZONE is zero.\n   **   ~~~   ** Check Sizing:Zone and ZoneControl:Thermostat inputs.\n   ** Warning ** Calculated design heating load for zone=PERIMETER_ZN_4_TZONE is zero.\n   **   ~~~   ** Check Sizing:Zone and ZoneControl:Thermostat inputs.\n   ** Warning ** Output:Meter: invalid Key Name=\"NATURALGAS:FACILITY\" - not found.\n   ** Warning ** Output:Meter: invalid Key Name=\"DISTRICTHEATING:FACILITY\" - not found.\n   ** Warning ** Output:Meter:MeterFileOnly: invalid Key Name=\"NATURALGAS:FACILITY\" - not found.\n   ** Warning ** Output:Meter:MeterFileOnly requested for \"Electricity:Facility\" (TimeStep), already on \"Output:Meter\". Will report to both eplusout.eso and eplusout.mtr\n   ************* Testing Individual Branch Integrity\n   ************* All Branches passed integrity testing\n   ************* Testing Individual Supply Air Path Integrity\n   ************* All Supply Air Paths passed integrity testing\n   ************* Testing Individual Return Air Path Integrity\n   ************* All Return Air Paths passed integrity testing\n   ************* No node connection errors were found.\n   ************* Beginning Simulation\n   ** Warning ** Processing Monthly Tabular Reports: Variable names not valid for this simulation\n   **   ~~~   ** ...use Output:Diagnostics,DisplayExtraWarnings; to show more details on individual variables.\n   ** Warning ** Inside surface heat balance did not converge with Max Temp Difference [C] =0.270 vs Max Allowed Temp Diff [C] =2.000000E-003\n   **   ~~~   **  Environment=MIAMI INTL AP ANN CLG .4% CONDNS DB=>MWB, at Simulation time=07/21 17:30 - 17:35\n   ** Warning ** Inside surface heat balance did not converge with Max Temp Difference [C] =0.212 vs Max Allowed Temp Diff [C] =2.000000E-003\n   **   ~~~   **  Environment=MIAMI INTL AP ANN CLG .4% CONDNS DB=>MWB, at Simulation time=07/21 17:40 - 17:45\n   ** Warning ** Inside surface heat balance did not converge with Max Temp Difference [C] =3.914E-002 vs Max Allowed Temp Diff [C] =2.000000E-003\n   **   ~~~   **  Environment=RUN PERIOD 1, at Simulation time=04/16 16:20 - 16:25\n   ** Warning ** Inside surface heat balance did not converge with Max Temp Difference [C] =1.352 vs Max Allowed Temp Diff [C] =2.000000E-003\n   **   ~~~   **  Environment=RUN PERIOD 1, at Simulation time=05/22 14:20 - 14:30\n   ** Warning ** Inside surface heat balance did not converge with Max Temp Difference [C] =0.253 vs Max Allowed Temp Diff [C] =2.000000E-003\n   **   ~~~   **  Environment=RUN PERIOD 1, at Simulation time=05/22 14:30 - 14:35\n   ** Warning ** Inside surface heat balance did not converge with Max Temp Difference [C] =0.633 vs Max Allowed Temp Diff [C] =2.000000E-003\n   **   ~~~   **  Environment=RUN PERIOD 1, at Simulation time=05/22 14:40 - 14:45\n   ** Warning ** Inside surface heat balance did not converge with Max Temp Difference [C] =5.874E-002 vs Max Allowed Temp Diff [C] =2.000000E-003\n   **   ~~~   **  Environment=RUN PERIOD 1, at Simulation time=05/29 16:30 - 16:40\n   ** Warning ** Inside surface heat balance did not converge with Max Temp Difference [C] =8.329E-002 vs Max Allowed Temp Diff [C] =2.000000E-003\n   **   ~~~   **  Environment=RUN PERIOD 1, at Simulation time=05/29 16:40 - 16:50\n   ** Warning ** Inside surface heat balance did not converge with Max Temp Difference [C] =9.623E-002 vs Max Allowed Temp Diff [C] =2.000000E-003\n   **   ~~~   **  Environment=RUN PERIOD 1, at Simulation time=05/29 16:50 - 17:00\n   ** Warning ** Inside surface heat balance did not converge with Max Temp Difference [C] =0.319 vs Max Allowed Temp Diff [C] =2.000000E-003\n   **   ~~~   **  Environment=RUN PERIOD 1, at Simulation time=07/05 15:40 - 15:43\n   ** Warning ** Inside surface heat balance did not converge with Max Temp Difference [C] =0.218 vs Max Allowed Temp Diff [C] =2.000000E-003\n   **   ~~~   **  Environment=RUN PERIOD 1, at Simulation time=07/05 15:50 - 15:53\n   ** Warning ** Inside surface heat balance did not converge with Max Temp Difference [C] =2.036E-003 vs Max Allowed Temp Diff [C] =2.000000E-003\n   **   ~~~   **  Environment=RUN PERIOD 1, at Simulation time=07/05 16:00 - 16:03\n   ** Warning ** Inside surface heat balance did not converge with Max Temp Difference [C] =4.268E-002 vs Max Allowed Temp Diff [C] =2.000000E-003\n   **   ~~~   **  Environment=RUN PERIOD 1, at Simulation time=07/27 16:00 - 16:10\n   ** Warning ** The resource referenced by LifeCycleCost:UsePriceEscalation= \"U.S. AVG  COMMERCIAL-ELECTRICITY\" has no energy cost. \n   **   ~~~   ** ... It is likely that the wrong resource is used. The resource should match the meter used in Utility:Tariff.\n   ** Warning ** The resource referenced by LifeCycleCost:UsePriceEscalation= \"U.S. AVG  COMMERCIAL-DISTILLATE OIL\" has no energy cost. \n   **   ~~~   ** ... It is likely that the wrong resource is used. The resource should match the meter used in Utility:Tariff.\n   ** Warning ** The resource referenced by LifeCycleCost:UsePriceEscalation= \"U.S. AVG  COMMERCIAL-RESIDUAL OIL\" has no energy cost. \n   **   ~~~   ** ... It is likely that the wrong resource is used. The resource should match the meter used in Utility:Tariff.\n   ** Warning ** The resource referenced by LifeCycleCost:UsePriceEscalation= \"U.S. AVG  COMMERCIAL-NATURAL GAS\" has no energy cost. \n   **   ~~~   ** ... It is likely that the wrong resource is used. The resource should match the meter used in Utility:Tariff.\n   ** Warning ** The resource referenced by LifeCycleCost:UsePriceEscalation= \"U.S. AVG  COMMERCIAL-COAL\" has no energy cost. \n   **   ~~~   ** ... It is likely that the wrong resource is used. The resource should match the meter used in Utility:Tariff.\n   ************* Simulation Error Summary *************\n   ** Warning ** The following Report Variables were requested but not generated -- check.rdd file\n   **   ~~~   ** Either the IDF did not contain these elements, the variable name is misspelled,\n   **   ~~~   ** or the requested variable is an advanced output which requires Output : Diagnostics, DisplayAdvancedReportVariables;\n   ************* Key=*, VarName=WIND SPEED, Frequency=Hourly\n   ************* There are 2 unused schedules in input.\n   ************* There are 2 unused week schedules in input.\n   ************* There are 11 unused day schedules in input.\n   ************* Use Output:Diagnostics,DisplayUnusedSchedules; to see them.\n   *************\n   ************* ===== Recurring Error Summary =====\n   ************* The following recurring error messages occurred.\n   *************\n   *************  ** Warning ** Inside surface heat balance convergence problem continues\n   *************  **   ~~~   **   This error occurred 61 total times;\n   *************  **   ~~~   **   during Warmup 0 times;\n   *************  **   ~~~   **   during Sizing 0 times.\n   *************  **   ~~~   **   Max=5.190230 [C]  Min=0.002506 [C]\n   *************\n   ************* EnergyPlus Warmup Error Summary. During Warmup: 0 Warning; 0 Severe Errors.\n   ************* EnergyPlus Sizing Error Summary. During Sizing: 10 Warning; 0 Severe Errors.\n   ************* EnergyPlus Completed Successfully-- 95 Warning; 0 Severe Errors; Elapsed Time=00hr 00min  3.77sec\n",
   "file_paths" : 
   [
      "/home/chenkianwee/kianwee_work/code_workspace/10.ifc2osmod/ifc2osmod/results/small_office_ideal_loads/small_office_wrkflw/generated_files",
      "./files",
      "./weather",
      "../../files",
      "../../weather",
      "./"
   ],
   "hash" : "353153AC",
   "run_options" : null,
   "seed_file" : "../small_office.osm",
   "started_at" : "20240904T165544Z",
   "steps" : 
   [
      {
         "arguments" : 
         {
            "add_meters" : false,
            "availability_schedule" : "Default Always On",
            "cooling_availability_schedule" : "Default Always On",
            "cooling_limit_type" : "NoLimit",
            "cooling_sensible_heat_ratio" : 0.69999999999999996,
            "dehumid_type" : "ConstantSensibleHeatRatio",
            "economizer_type" : "NoEconomizer",
            "enable_dcv" : false,
            "heat_recovery_type" : "None",
            "heating_availability_schedule" : "Default Always On",
            "heating_limit_type" : "NoLimit",
            "humid_type" : "None",
            "include_outdoor_air" : true,
            "latent_effectiveness" : 0.65000000000000002,
            "sensible_effectiveness" : 0.69999999999999996
         },
         "measure_dir_name" : "ideal_air_loads_zone_hvac",
         "name" : "ideal_air_loads_zone_hvac",
         "result" : 
         {
            "completed_at" : "20240904T165547Z",
            "measure_class_name" : "IdealAirLoadsZoneHVAC",
            "measure_display_name" : "Ideal Air Loads Zone HVAC",
            "measure_name" : "ideal_air_loads_zone_hvac",
            "measure_taxonomy" : "HVAC.Whole System",
            "measure_type" : "ModelMeasure",
            "measure_uid" : "9cdff3b9-7ce1-4982-b555-bb83c73727e4",
            "measure_version_id" : "90d49730-26c9-4217-8a02-9c487f3f0f05",
            "measure_version_modified" : "20240829T150554Z",
            "measure_xml_checksum" : "1423DDF2",
            "started_at" : "20240904T165547Z",
            "stderr" : "",
            "stdout" : "",
            "step_errors" : [],
            "step_files" : [],
            "step_final_condition" : "The model has 5 ideal air loads objects.",
            "step_info" : 
            [
               "Removing existing HVAC systems from the model"
            ],
            "step_initial_condition" : "The model has 0 ideal air loads objects.",
            "step_result" : "Success",
            "step_values" : 
            [
               {
                  "name" : "availability_schedule",
                  "value" : "Default Always On"
               },
               {
                  "name" : "heating_availability_schedule",
                  "value" : "Default Always On"
               },
               {
                  "name" : "cooling_availability_schedule",
                  "value" : "Default Always On"
               },
               {
                  "name" : "heating_limit_type",
                  "value" : "NoLimit"
               },
               {
                  "name" : "cooling_limit_type",
                  "value" : "NoLimit"
               },
               {
                  "name" : "dehumid_type",
                  "value" : "ConstantSensibleHeatRatio"
               },
               {
                  "name" : "cooling_sensible_heat_ratio",
                  "value" : 0.69999999999999996
               },
               {
                  "name" : "humid_type",
                  "value" : "None"
               },
               {
                  "name" : "include_outdoor_air",
                  "value" : true
               },
               {
                  "name" : "enable_dcv",
                  "value" : false
               },
               {
                  "name" : "economizer_type",
                  "value" : "NoEconomizer"
               },
               {
                  "name" : "heat_recovery_type",
                  "value" : "None"
               },
               {
                  "name" : "sensible_effectiveness",
                  "value" : 0.69999999999999996
               },
               {
                  "name" : "latent_effectiveness",
                  "value" : 0.65000000000000002
               },
               {
                  "name" : "add_meters",
                  "value" : false
               }
            ],
            "step_warnings" : []
         }
      },
      {
         "arguments" : {},
         "measure_dir_name" : "site_zone_results",
         "name" : "site_zone_results",
         "result" : 
         {
            "completed_at" : "20240904T165548Z",
            "measure_class_name" : "SiteZoneResults",
            "measure_display_name" : "Add site and zone level output variables",
            "measure_name" : "site_zone_results",
            "measure_taxonomy" : "Reporting.QAQC",
            "measure_type" : "ModelMeasure",
            "measure_uid" : "2cfd908e-9d4a-43d3-ba4e-8253cb0364b3",
            "measure_version_id" : "6760a2bd-5361-42a9-9338-a6b13ed95380",
            "measure_version_modified" : "20240903T152740Z",
            "measure_xml_checksum" : "50718C83",
            "started_at" : "20240904T165548Z",
            "stderr" : "",
            "stdout" : "",
            "step_errors" : [],
            "step_files" : [],
            "step_final_condition" : "Successfully output variables",
            "step_info" : 
            [
               "There are no user arguments in this measure"
            ],
            "step_result" : "Success",
            "step_values" : [],
            "step_warnings" : []
         }
      }
   ],
   "updated_at" : "20240904T165554Z"
}