{
   "completed_at" : "20240821T140954Z",
   "completed_status" : "Success",
   "created_at" : "20240821T140928Z",
   "current_step" : 2,
   "eplusout_err" : "Program Version,EnergyPlus, Version 23.2.0-7636e6b3e9, YMD=2024.08.21 10:09,\n   ************* Beginning Zone Sizing Calculations\n   ** Warning ** Site:GroundTemperature:BuildingSurface: Some values fall outside the range of 15-25C.\n   **   ~~~   ** These values may be inappropriate.  Please consult the Input Output Reference for more details.\n   ** Warning ** ProcessScheduleInput: Schedule:Day:Interval=\"5 ZONE DOAS OCC SCH DEFAULT\", Blank Schedule Type Limits Name input -- will not be validated.\n   ** Warning ** ProcessScheduleInput: Schedule:Day:Interval=\"5 ZONE DOAS OCC SCH SUMMER DESIGN DAY\", Blank Schedule Type Limits Name input -- will not be validated.\n   ** Warning ** ProcessScheduleInput: Schedule:Day:Interval=\"5 ZONE DOAS OCC SCH SUNDAY\", Blank Schedule Type Limits Name input -- will not be validated.\n   ** Warning ** ProcessScheduleInput: Schedule:Day:Interval=\"5 ZONE DOAS OCC SCH WINTER DESIGN DAY\", Blank Schedule Type Limits Name input -- will not be validated.\n   ** Warning ** ProcessScheduleInput: Schedule:Day:Interval=\"CORE_ZN_TZONE RADIANT SYSTEM OCCUPIED SCHEDULE DEFAULT\", Blank Schedule Type Limits Name input -- will not be validated.\n   ** Warning ** ProcessScheduleInput: Schedule:Day:Interval=\"CORE_ZN_TZONE RADIANT SYSTEM OCCUPIED SCHEDULE SUMMER DESIGN DAY\", Blank Schedule Type Limits Name input -- will not be validated.\n   ** Warning ** ProcessScheduleInput: Schedule:Day:Interval=\"CORE_ZN_TZONE RADIANT SYSTEM OCCUPIED SCHEDULE SUNDAY\", Blank Schedule Type Limits Name input -- will not be validated.\n   ** Warning ** ProcessScheduleInput: Schedule:Day:Interval=\"CORE_ZN_TZONE RADIANT SYSTEM OCCUPIED SCHEDULE WINTER DESIGN DAY\", Blank Schedule Type Limits Name input -- will not be validated.\n   ** Warning ** ProcessScheduleInput: Schedule:Day:Interval=\"PERIMETER_ZN_1_TZONE RADIANT SYSTEM OCCUPIED SCHEDULE DEFAULT\", Blank Schedule Type Limits Name input -- will not be validated.\n   ** Warning ** ProcessScheduleInput: Schedule:Day:Interval=\"PERIMETER_ZN_1_TZONE RADIANT SYSTEM OCCUPIED SCHEDULE SUMMER DESIGN DAY\", Blank Schedule Type Limits Name input -- will not be validated.\n   ** Warning ** ProcessScheduleInput: Schedule:Day:Interval=\"PERIMETER_ZN_1_TZONE RADIANT SYSTEM OCCUPIED SCHEDULE SUNDAY\", Blank Schedule Type Limits Name input -- will not be validated.\n   ** Warning ** ProcessScheduleInput: Schedule:Day:Interval=\"PERIMETER_ZN_1_TZONE RADIANT SYSTEM OCCUPIED SCHEDULE WINTER DESIGN DAY\", Blank Schedule Type Limits Name input -- will not be validated.\n   ** Warning ** ProcessScheduleInput: Schedule:Day:Interval=\"PERIMETER_ZN_2_TZONE RADIANT SYSTEM OCCUPIED SCHEDULE DEFAULT\", Blank Schedule Type Limits Name input -- will not be validated.\n   ** Warning ** ProcessScheduleInput: Schedule:Day:Interval=\"PERIMETER_ZN_2_TZONE RADIANT SYSTEM OCCUPIED SCHEDULE SUMMER DESIGN DAY\", Blank Schedule Type Limits Name input -- will not be validated.\n   ** Warning ** ProcessScheduleInput: Schedule:Day:Interval=\"PERIMETER_ZN_2_TZONE RADIANT SYSTEM OCCUPIED SCHEDULE SUNDAY\", Blank Schedule Type Limits Name input -- will not be validated.\n   ** Warning ** ProcessScheduleInput: Schedule:Day:Interval=\"PERIMETER_ZN_2_TZONE RADIANT SYSTEM OCCUPIED SCHEDULE WINTER DESIGN DAY\", Blank Schedule Type Limits Name input -- will not be validated.\n   ** Warning ** ProcessScheduleInput: Schedule:Day:Interval=\"PERIMETER_ZN_3_TZONE RADIANT SYSTEM OCCUPIED SCHEDULE DEFAULT\", Blank Schedule Type Limits Name input -- will not be validated.\n   ** Warning ** ProcessScheduleInput: Schedule:Day:Interval=\"PERIMETER_ZN_3_TZONE RADIANT SYSTEM OCCUPIED SCHEDULE SUMMER DESIGN DAY\", Blank Schedule Type Limits Name input -- will not be validated.\n   ** Warning ** ProcessScheduleInput: Schedule:Day:Interval=\"PERIMETER_ZN_3_TZONE RADIANT SYSTEM OCCUPIED SCHEDULE SUNDAY\", Blank Schedule Type Limits Name input -- will not be validated.\n   ** Warning ** ProcessScheduleInput: Schedule:Day:Interval=\"PERIMETER_ZN_3_TZONE RADIANT SYSTEM OCCUPIED SCHEDULE WINTER DESIGN DAY\", Blank Schedule Type Limits Name input -- will not be validated.\n   ** Warning ** ProcessScheduleInput: Schedule:Day:Interval=\"PERIMETER_ZN_4_TZONE RADIANT SYSTEM OCCUPIED SCHEDULE DEFAULT\", Blank Schedule Type Limits Name input -- will not be validated.\n   ** Warning ** ProcessScheduleInput: Schedule:Day:Interval=\"PERIMETER_ZN_4_TZONE RADIANT SYSTEM OCCUPIED SCHEDULE SUMMER DESIGN DAY\", Blank Schedule Type Limits Name input -- will not be validated.\n   ** Warning ** ProcessScheduleInput: Schedule:Day:Interval=\"PERIMETER_ZN_4_TZONE RADIANT SYSTEM OCCUPIED SCHEDULE SUNDAY\", Blank Schedule Type Limits Name input -- will not be validated.\n   ** Warning ** ProcessScheduleInput: Schedule:Day:Interval=\"PERIMETER_ZN_4_TZONE RADIANT SYSTEM OCCUPIED SCHEDULE WINTER DESIGN DAY\", Blank Schedule Type Limits Name input -- will not be validated.\n   ** Warning ** ProcessScheduleInput: Schedule:Day:Interval=\"SCHEDULE DAY 10\", Blank Schedule Type Limits Name input -- will not be validated.\n   ** Warning ** ProcessScheduleInput: Schedule:Day:Interval=\"SCHEDULE DAY 11\", Blank Schedule Type Limits Name input -- will not be validated.\n   ** Warning ** ProcessScheduleInput: Schedule:Day:Interval=\"SCHEDULE DAY 12\", Blank Schedule Type Limits Name input -- will not be validated.\n   ** Warning ** ProcessScheduleInput: Schedule:Day:Interval=\"SCHEDULE DAY 13\", Blank Schedule Type Limits Name input -- will not be validated.\n   ** Warning ** ProcessScheduleInput: Schedule:Day:Interval=\"SCHEDULE DAY 14\", Blank Schedule Type Limits Name input -- will not be validated.\n   ** Warning ** ProcessScheduleInput: Schedule:Day:Interval=\"SCHEDULE DAY 15\", Blank Schedule Type Limits Name input -- will not be validated.\n   ** Warning ** ProcessScheduleInput: Schedule:Day:Interval=\"SCHEDULE DAY 16\", Blank Schedule Type Limits Name input -- will not be validated.\n   ** Warning ** ProcessScheduleInput: Schedule:Day:Interval=\"SCHEDULE DAY 17\", Blank Schedule Type Limits Name input -- will not be validated.\n   ** Warning ** ProcessScheduleInput: Schedule:Day:Interval=\"SCHEDULE DAY 18\", Blank Schedule Type Limits Name input -- will not be validated.\n   ** Warning ** ProcessScheduleInput: Schedule:Day:Interval=\"SCHEDULE DAY 7\", Blank Schedule Type Limits Name input -- will not be validated.\n   ** Warning ** ProcessScheduleInput: Schedule:Day:Interval=\"SCHEDULE DAY 8\", Blank Schedule Type Limits Name input -- will not be validated.\n   ** Warning ** ProcessScheduleInput: Schedule:Day:Interval=\"SCHEDULE DAY 9\", Blank Schedule Type Limits Name input -- will not be validated.\n   ** Warning ** ProcessScheduleInput: Schedule:Year=\"5 ZONE DOAS OCC SCH\", Blank Schedule Type Limits Name input -- will not be validated.\n   ** Warning ** ProcessScheduleInput: Schedule:Year=\"CORE_ZN_TZONE RADIANT SYSTEM OCCUPIED SCHEDULE\", Blank Schedule Type Limits Name input -- will not be validated.\n   ** Warning ** ProcessScheduleInput: Schedule:Year=\"PERIMETER_ZN_1_TZONE RADIANT SYSTEM OCCUPIED SCHEDULE\", Blank Schedule Type Limits Name input -- will not be validated.\n   ** Warning ** ProcessScheduleInput: Schedule:Year=\"PERIMETER_ZN_2_TZONE RADIANT SYSTEM OCCUPIED SCHEDULE\", Blank Schedule Type Limits Name input -- will not be validated.\n   ** Warning ** ProcessScheduleInput: Schedule:Year=\"PERIMETER_ZN_3_TZONE RADIANT SYSTEM OCCUPIED SCHEDULE\", Blank Schedule Type Limits Name input -- will not be validated.\n   ** Warning ** ProcessScheduleInput: Schedule:Year=\"PERIMETER_ZN_4_TZONE RADIANT SYSTEM OCCUPIED SCHEDULE\", Blank Schedule Type Limits Name input -- will not be validated.\n   ** Warning ** ProcessScheduleInput: Schedule:Constant=\"ALWAYS OFF DISCRETE\", Blank Schedule Type Limits Name input -- will not be validated.\n   ** Warning ** ProcessScheduleInput: Schedule:Constant=\"ALWAYS ON CONTINUOUS\", Blank Schedule Type Limits Name input -- will not be validated.\n   ** Warning ** Construction RADIANT EXTERIOR CEILING SLAB CONSTRUCTION must have a temperature calculation that is between two layers\n   **   ~~~   ** The temperature calculation after layer parameter has been set to one less than the number of layers.\n   ** Warning ** Construction RADIANT EXTERIOR SLAB CONSTRUCTION must have a temperature calculation that is between two layers\n   **   ~~~   ** The temperature calculation after layer parameter has been set to one less than the number of layers.\n   ** Warning ** Construction RADIANT GROUND SLAB CONSTRUCTION must have a temperature calculation that is between two layers\n   **   ~~~   ** The temperature calculation after layer parameter has been set to one less than the number of layers.\n   ** Warning ** CheckUsedConstructions: There are 6 nominally unused constructions in input.\n   **   ~~~   ** For explicit details on each unused construction, use Output:Diagnostics,DisplayExtraWarnings;\n   ** Warning ** GetElectricEIRChillerInput: Chiller:Electric:EIR=\"90.1-2013 AIRCOOLED   CHILLER 0\"\n   **   ~~~   ** Capacity ratio as a function of temperature curve output is not equal to 1.0 (+ or - 10%) at reference conditions.\n   **   ~~~   ** Curve output at reference conditions = 1.105\n   ** Warning ** Inside surface heat balance did not converge with Max Temp Difference [C] =0.357 vs Max Allowed Temp Diff [C] =2.000000E-003\n   **   ~~~   **  During Sizing, Environment=SINGAPORE ANN CLG .4% CONDNS DB=>MWB, at Simulation time=06/21 17:50 - 17:55\n   ** Warning ** Inside surface heat balance did not converge with Max Temp Difference [C] =2.224E-002 vs Max Allowed Temp Diff [C] =2.000000E-003\n   **   ~~~   **  During Sizing, Environment=SINGAPORE ANN CLG .4% CONDNS DB=>MWB, at Simulation time=06/21 18:00 - 18:05\n   ** Warning ** Calculated design heating load for zone=CORE_ZN_TZONE is zero.\n   **   ~~~   ** Check Sizing:Zone and ZoneControl:Thermostat inputs.\n   ** Warning ** Calculated design heating load for zone=PERIMETER_ZN_1_TZONE is zero.\n   **   ~~~   ** Check Sizing:Zone and ZoneControl:Thermostat inputs.\n   ** Warning ** Calculated design heating load for zone=PERIMETER_ZN_2_TZONE is zero.\n   **   ~~~   ** Check Sizing:Zone and ZoneControl:Thermostat inputs.\n   ** Warning ** Calculated design heating load for zone=PERIMETER_ZN_3_TZONE is zero.\n   **   ~~~   ** Check Sizing:Zone and ZoneControl:Thermostat inputs.\n   ** Warning ** Calculated design heating load for zone=PERIMETER_ZN_4_TZONE is zero.\n   **   ~~~   ** Check Sizing:Zone and ZoneControl:Thermostat inputs.\n   ************* Beginning System Sizing Calculations\n   ** Warning ** ManageSizing: Calculated Heating Design Air Flow Rate for System=5 ZONE DOAS is zero.\n   **   ~~~   ** Check Sizing:Zone and ZoneControl:Thermostat inputs.\n   ************* Beginning Plant Sizing Calculations\n   ** Warning ** GetOAControllerInputs: Controller:MechanicalVentilation=\"5 ZONE DOAS MECHANICAL VENTILATION CONTROLLER\"\n   **   ~~~   ** Cannot locate a matching DesignSpecification:ZoneAirDistribution object for Zone=\"CORE_ZN_TZONE\".\n   **   ~~~   ** Using default zone air distribution effectiveness of 1.0 for heating and cooling.\n   ** Warning ** GetOAControllerInputs: Controller:MechanicalVentilation=\"5 ZONE DOAS MECHANICAL VENTILATION CONTROLLER\"\n   **   ~~~   ** Cannot locate a matching DesignSpecification:ZoneAirDistribution object for Zone=\"PERIMETER_ZN_1_TZONE\".\n   **   ~~~   ** Using default zone air distribution effectiveness of 1.0 for heating and cooling.\n   ** Warning ** GetOAControllerInputs: Controller:MechanicalVentilation=\"5 ZONE DOAS MECHANICAL VENTILATION CONTROLLER\"\n   **   ~~~   ** Cannot locate a matching DesignSpecification:ZoneAirDistribution object for Zone=\"PERIMETER_ZN_2_TZONE\".\n   **   ~~~   ** Using default zone air distribution effectiveness of 1.0 for heating and cooling.\n   ** Warning ** GetOAControllerInputs: Controller:MechanicalVentilation=\"5 ZONE DOAS MECHANICAL VENTILATION CONTROLLER\"\n   **   ~~~   ** Cannot locate a matching DesignSpecification:ZoneAirDistribution object for Zone=\"PERIMETER_ZN_3_TZONE\".\n   **   ~~~   ** Using default zone air distribution effectiveness of 1.0 for heating and cooling.\n   ** Warning ** GetOAControllerInputs: Controller:MechanicalVentilation=\"5 ZONE DOAS MECHANICAL VENTILATION CONTROLLER\"\n   **   ~~~   ** Cannot locate a matching DesignSpecification:ZoneAirDistribution object for Zone=\"PERIMETER_ZN_4_TZONE\".\n   **   ~~~   ** Using default zone air distribution effectiveness of 1.0 for heating and cooling.\n   ** Warning ** GetDXCoils: Coil:Heating:DX:SingleSpeed=\"5 ZONE DOAS HTG COIL 19 CLG KBTU/HR 8.0HSPF\" curve values\n   **   ~~~   ** ... Defrost Energy Input Ratio Function of Temperature Curve Name = 5 ZONE DOAS HTG COIL DEFROST EIR FUNC OF TEMP CURVE output is not equal to 1.0 (+ or - 10%) at rated conditions.\n   **   ~~~   ** ... Curve output at rated conditions = 0.788\n   ** Warning ** CalcTwoSpeedDXCoilStandardRating: Did not find an appropriate fan associated with DX coil named = \"5 ZONE DOAS 2SPD DX CLG COIL 19KBTU/HR 14.0SEER\". Standard Ratings will not be calculated.\n   ** Warning ** SizePlantLoop: Calculated Plant Sizing Design Volume Flow Rate=[0.00] is too small. Set to 0.0\n   **   ~~~   ** ..occurs for PlantLoop=HOT WATER LOOP\n   ** Warning ** SizePump: Calculated Pump Nominal Volume Flow Rate=[0.00] is too small. Set to 0.0\n   **   ~~~   ** ..occurs for Pump=HOT WATER LOOP PUMP\n   ** Warning ** Check input. Pump nominal power or motor efficiency is set to 0, for pump=HOT WATER LOOP PUMP\n   ** Warning ** Check input. Pump nominal flow rate is set or calculated = 0, for pump=HOT WATER LOOP PUMP\n   ** Warning ** Output:Meter: invalid Key Name=\"NATURALGAS:FACILITY\" - not found.\n   ** Warning ** Output:Meter: invalid Key Name=\"DISTRICTCOOLING:FACILITY\" - not found.\n   ** Warning ** Output:Meter: invalid Key Name=\"DISTRICTHEATING:FACILITY\" - not found.\n   ** Warning ** Output:Meter:MeterFileOnly: invalid Key Name=\"NATURALGAS:FACILITY\" - not found.\n   ** Warning ** Output:Meter:MeterFileOnly requested for \"Electricity:Facility\" (TimeStep), already on \"Output:Meter\". Will report to both eplusout.eso and eplusout.mtr\n   ************* Testing Individual Branch Integrity\n   ************* All Branches passed integrity testing\n   ************* Testing Individual Supply Air Path Integrity\n   ************* All Supply Air Paths passed integrity testing\n   ************* Testing Individual Return Air Path Integrity\n   ************* All Return Air Paths passed integrity testing\n   ************* No node connection errors were found.\n   ************* Beginning Simulation\n   ** Warning ** Processing Monthly Tabular Reports: Variable names not valid for this simulation\n   **   ~~~   ** ...use Output:Diagnostics,DisplayExtraWarnings; to show more details on individual variables.\n   ** Warning ** Inside surface heat balance did not converge with Max Temp Difference [C] =1.510 vs Max Allowed Temp Diff [C] =2.000000E-003\n   **   ~~~   **  Environment=RUN PERIOD 1, at Simulation time=03/07 14:40 - 14:45\n   ** Warning ** Inside surface heat balance did not converge with Max Temp Difference [C] =0.223 vs Max Allowed Temp Diff [C] =2.000000E-003\n   **   ~~~   **  Environment=RUN PERIOD 1, at Simulation time=03/07 14:50 - 14:55\n   ** Warning ** Inside surface heat balance did not converge with Max Temp Difference [C] =0.763 vs Max Allowed Temp Diff [C] =2.000000E-003\n   **   ~~~   **  Environment=RUN PERIOD 1, at Simulation time=03/07 15:00 - 15:05\n   ** Warning ** Inside surface heat balance did not converge with Max Temp Difference [C] =0.272 vs Max Allowed Temp Diff [C] =2.000000E-003\n   **   ~~~   **  Environment=RUN PERIOD 1, at Simulation time=03/15 18:00 - 18:05\n   ** Warning ** Inside surface heat balance did not converge with Max Temp Difference [C] =6.768E-002 vs Max Allowed Temp Diff [C] =2.000000E-003\n   **   ~~~   **  Environment=RUN PERIOD 1, at Simulation time=03/18 14:30 - 14:35\n   ** Warning ** Inside surface heat balance did not converge with Max Temp Difference [C] =0.177 vs Max Allowed Temp Diff [C] =2.000000E-003\n   **   ~~~   **  Environment=RUN PERIOD 1, at Simulation time=03/20 17:40 - 17:45\n   ** Warning ** Inside surface heat balance did not converge with Max Temp Difference [C] =2.940E-002 vs Max Allowed Temp Diff [C] =2.000000E-003\n   **   ~~~   **  Environment=RUN PERIOD 1, at Simulation time=03/20 17:50 - 17:55\n   ** Warning ** Inside surface heat balance did not converge with Max Temp Difference [C] =0.405 vs Max Allowed Temp Diff [C] =2.000000E-003\n   **   ~~~   **  Environment=RUN PERIOD 1, at Simulation time=03/22 15:30 - 15:35\n   ** Warning ** Inside surface heat balance did not converge with Max Temp Difference [C] =0.147 vs Max Allowed Temp Diff [C] =2.000000E-003\n   **   ~~~   **  Environment=RUN PERIOD 1, at Simulation time=03/24 17:40 - 17:45\n   ** Warning ** Inside surface heat balance did not converge with Max Temp Difference [C] =3.416 vs Max Allowed Temp Diff [C] =2.000000E-003\n   **   ~~~   **  Environment=RUN PERIOD 1, at Simulation time=03/29 13:30 - 13:40\n   ** Warning ** Inside surface heat balance did not converge with Max Temp Difference [C] =2.219E-003 vs Max Allowed Temp Diff [C] =2.000000E-003\n   **   ~~~   **  Environment=RUN PERIOD 1, at Simulation time=04/04 16:00 - 16:10\n   ** Warning ** Inside surface heat balance did not converge with Max Temp Difference [C] =7.728E-003 vs Max Allowed Temp Diff [C] =2.000000E-003\n   **   ~~~   **  Environment=RUN PERIOD 1, at Simulation time=04/04 16:10 - 16:20\n   ** Warning ** Inside surface heat balance did not converge with Max Temp Difference [C] =1.561E-002 vs Max Allowed Temp Diff [C] =2.000000E-003\n   **   ~~~   **  Environment=RUN PERIOD 1, at Simulation time=04/04 16:20 - 16:25\n   ** Warning ** The resource referenced by LifeCycleCost:UsePriceEscalation= \"U.S. AVG  COMMERCIAL-ELECTRICITY\" has no energy cost. \n   **   ~~~   ** ... It is likely that the wrong resource is used. The resource should match the meter used in Utility:Tariff.\n   ** Warning ** The resource referenced by LifeCycleCost:UsePriceEscalation= \"U.S. AVG  COMMERCIAL-DISTILLATE OIL\" has no energy cost. \n   **   ~~~   ** ... It is likely that the wrong resource is used. The resource should match the meter used in Utility:Tariff.\n   ** Warning ** The resource referenced by LifeCycleCost:UsePriceEscalation= \"U.S. AVG  COMMERCIAL-RESIDUAL OIL\" has no energy cost. \n   **   ~~~   ** ... It is likely that the wrong resource is used. The resource should match the meter used in Utility:Tariff.\n   ** Warning ** The resource referenced by LifeCycleCost:UsePriceEscalation= \"U.S. AVG  COMMERCIAL-NATURAL GAS\" has no energy cost. \n   **   ~~~   ** ... It is likely that the wrong resource is used. The resource should match the meter used in Utility:Tariff.\n   ** Warning ** The resource referenced by LifeCycleCost:UsePriceEscalation= \"U.S. AVG  COMMERCIAL-COAL\" has no energy cost. \n   **   ~~~   ** ... It is likely that the wrong resource is used. The resource should match the meter used in Utility:Tariff.\n   ************* Simulation Error Summary *************\n   ************* There are 16 unused schedules in input.\n   ************* There are 16 unused week schedules in input.\n   ************* There are 42 unused day schedules in input.\n   ************* Use Output:Diagnostics,DisplayUnusedSchedules; to see them.\n   *************\n   ************* ===== Recurring Error Summary =====\n   ************* The following recurring error messages occurred.\n   *************\n   *************  ** Warning ** Inside surface heat balance convergence problem continues\n   *************  **   ~~~   **   This error occurred 67 total times;\n   *************  **   ~~~   **   during Warmup 0 times;\n   *************  **   ~~~   **   during Sizing 0 times.\n   *************  **   ~~~   **   Max=2.030979 [C]  Min=0.002630 [C]\n   *************\n   *************\n   ************* ===== Final Error Summary =====\n   ************* The following error categories occurred.  Consider correcting or noting.\n   ************* Nominally Unused Constructions\n   ************* ..The nominally unused constructions warning is provided to alert you to potential conditions that can cause\n   ************* ..extra time during simulation. Each construction is calculated by the algorithm indicated in the HeatBalanceAlgorithm\n   ************* ..object. You may remove the constructions indicated (when you use the DisplayExtraWarnings option).\n   *************\n   ************* EnergyPlus Warmup Error Summary. During Warmup: 0 Warning; 0 Severe Errors.\n   ************* EnergyPlus Sizing Error Summary. During Sizing: 58 Warning; 0 Severe Errors.\n   ************* EnergyPlus Completed Successfully-- 160 Warning; 0 Severe Errors; Elapsed Time=00hr 00min 13.61sec\n",
   "file_paths" : 
   [
      "/home/chenkianwee/kianwee_work/code_workspace/10.ifc2osmod/ifc2osmod/results/osmod/small_office_wrkflw/generated_files",
      "./files",
      "./weather",
      "../../files",
      "../../weather",
      "./"
   ],
   "hash" : "C1A5F2C0",
   "run_options" : null,
   "seed_file" : "../small_office.osm",
   "started_at" : "20240821T140928Z",
   "steps" : 
   [
      {
         "arguments" : 
         {
            "add_output_variables" : true,
            "control_strategy" : "proportional_control",
            "cooling_plant_type" : "Air Cooled Chiller",
            "heating_plant_type" : "Air Source Heat Pump",
            "include_carpet" : false,
            "lockout_end_time" : 20,
            "lockout_start_time" : 12,
            "proportional_gain" : 0.29999999999999999,
            "radiant_lockout" : false,
            "radiant_type" : "ceiling",
            "remove_existing_hvac" : true,
            "standards_template" : "90.1-2013",
            "switch_over_time" : 24,
            "waterside_economizer" : "none"
         },
         "measure_dir_name" : "radiant_slab_with_doas",
         "name" : "radiant_slab_with_doas",
         "result" : 
         {
            "completed_at" : "20240821T140933Z",
            "measure_class_name" : "RadiantSlabWithDoas",
            "measure_display_name" : "Radiant Slab with DOAS",
            "measure_name" : "radiant_slab_with_doas",
            "measure_taxonomy" : "HVAC.Whole System",
            "measure_type" : "ModelMeasure",
            "measure_uid" : "8091a0c3-7760-4da6-adf4-133d55872816",
            "measure_version_id" : "be8dfd62-ca73-420a-8bc3-700c2dc23efc",
            "measure_version_modified" : "20240814T163211Z",
            "measure_xml_checksum" : "C49A7DAB",
            "started_at" : "20240821T140931Z",
            "stderr" : "",
            "stdout" : "",
            "step_errors" : [],
            "step_files" : [],
            "step_final_condition" : "This measure created 5 radiant ceiling objects.",
            "step_info" : 
            [
               "Removing existing HVAC systems from the model",
               "Based on model climate zone 1A, using 100.0F heating supply water temperature.",
               "Adjusting HVAC equipment efficiencies and controls to follow template 90.1-2013."
            ],
            "step_initial_condition" : "This measure will add radiant systems to 5 conditioned zones with a hot water loop served by a Air Source Heat Pump and chilled water loop served by a Air Cooled Chiller.",
            "step_result" : "Success",
            "step_values" : 
            [
               {
                  "name" : "remove_existing_hvac",
                  "value" : true
               },
               {
                  "name" : "heating_plant_type",
                  "value" : "Air Source Heat Pump"
               },
               {
                  "name" : "cooling_plant_type",
                  "value" : "Air Cooled Chiller"
               },
               {
                  "name" : "waterside_economizer",
                  "value" : "none"
               },
               {
                  "name" : "radiant_type",
                  "value" : "ceiling"
               },
               {
                  "name" : "include_carpet",
                  "value" : false
               },
               {
                  "name" : "control_strategy",
                  "value" : "proportional_control"
               },
               {
                  "name" : "proportional_gain",
                  "value" : 0.29999999999999999
               },
               {
                  "name" : "switch_over_time",
                  "value" : 24.0
               },
               {
                  "name" : "radiant_lockout",
                  "value" : false
               },
               {
                  "name" : "lockout_start_time",
                  "value" : 12.0
               },
               {
                  "name" : "lockout_end_time",
                  "value" : 20.0
               },
               {
                  "name" : "add_output_variables",
                  "value" : true
               },
               {
                  "name" : "standards_template",
                  "value" : "90.1-2013"
               }
            ],
            "step_warnings" : []
         }
      },
      {
         "arguments" : 
         {
            "units" : "SI"
         },
         "measure_dir_name" : "openstudio_results",
         "name" : "openstudio_results",
         "result" : 
         {
            "completed_at" : "20240821T140951Z",
            "measure_class_name" : "OpenStudioResults",
            "measure_display_name" : "OpenStudio Results",
            "measure_name" : "openstudio_results",
            "measure_taxonomy" : "Reporting.QAQC",
            "measure_type" : "ReportingMeasure",
            "measure_uid" : "a25386cd-60e4-46bc-8b11-c755f379d916",
            "measure_version_id" : "6b37673b-b0d8-4ab4-8f5a-0a48f170b4e8",
            "measure_version_modified" : "20221115T224202Z",
            "measure_xml_checksum" : "557BF06F",
            "started_at" : "20240821T140948Z",
            "stderr" : "",
            "stdout" : "",
            "step_errors" : [],
            "step_files" : 
            [
               "/home/chenkianwee/kianwee_work/code_workspace/10.ifc2osmod/ifc2osmod/results/osmod/small_office_wrkflw/run/001_openstudio_results/report.html"
            ],
            "step_final_condition" : "Generated report with 21 sections to ./report.html.",
            "step_info" : [],
            "step_initial_condition" : "Gathering data from EnergyPlus SQL file and OSM model. Will report in SI Units",
            "step_result" : "Success",
            "step_values" : 
            [
               {
                  "name" : "units",
                  "value" : "SI"
               },
               {
                  "name" : "building_summary_section",
                  "value" : true
               },
               {
                  "name" : "annual_overview_section",
                  "value" : true
               },
               {
                  "name" : "monthly_overview_section",
                  "value" : true
               },
               {
                  "name" : "utility_bills_rates_section",
                  "value" : true
               },
               {
                  "name" : "envelope_section_section",
                  "value" : true
               },
               {
                  "name" : "space_type_breakdown_section",
                  "value" : true
               },
               {
                  "name" : "space_type_details_section",
                  "value" : true
               },
               {
                  "name" : "interior_lighting_section",
                  "value" : true
               },
               {
                  "name" : "plug_loads_section",
                  "value" : true
               },
               {
                  "name" : "exterior_light_section",
                  "value" : true
               },
               {
                  "name" : "water_use_section",
                  "value" : true
               },
               {
                  "name" : "hvac_load_profile",
                  "value" : true
               },
               {
                  "name" : "zone_condition_section",
                  "value" : true
               },
               {
                  "name" : "zone_summary_section",
                  "value" : true
               },
               {
                  "name" : "zone_equipment_detail_section",
                  "value" : true
               },
               {
                  "name" : "air_loops_detail_section",
                  "value" : true
               },
               {
                  "name" : "plant_loops_detail_section",
                  "value" : true
               },
               {
                  "name" : "outdoor_air_section",
                  "value" : true
               },
               {
                  "name" : "cost_summary_section",
                  "value" : true
               },
               {
                  "name" : "source_energy_section",
                  "value" : true
               },
               {
                  "name" : "schedules_overview_section",
                  "value" : true
               },
               {
                  "name" : "measure_warning_section",
                  "value" : true
               },
               {
                  "name" : "reg_monthly_details",
                  "value" : false
               },
               {
                  "name" : "standards_gem_version",
                  "value" : "0.5.0"
               },
               {
                  "display_name" : "Building 1",
                  "name" : "building_name",
                  "value" : "n/a"
               },
               {
                  "name" : "total_site_energy",
                  "units" : "kWh",
                  "value" : 29569.444444444445
               },
               {
                  "name" : "net_site_energy",
                  "units" : "kWh",
                  "value" : 29569.444444444445
               },
               {
                  "name" : "total_building_area",
                  "units" : "m^2",
                  "value" : 511.16000000000003
               },
               {
                  "name" : "total_site_eui",
                  "units" : "kWh/m^2",
                  "value" : 57.847727608663526
               },
               {
                  "name" : "eui",
                  "units" : "kWh/m^2",
                  "value" : 57.847727608663526
               },
               {
                  "name" : "unmet_hours_during_heating",
                  "units" : "hr",
                  "value" : 0.0
               },
               {
                  "name" : "unmet_hours_during_cooling",
                  "units" : "hr",
                  "value" : 7753.6700000000001
               },
               {
                  "name" : "unmet_hours_during_occupied_heating",
                  "units" : "hr",
                  "value" : 0.0
               },
               {
                  "name" : "unmet_hours_during_occupied_cooling",
                  "units" : "hr",
                  "value" : 2078.3299999999999
               },
               {
                  "name" : "unmet_hours_tolerance_heating",
                  "units" : "K",
                  "value" : 0.20000000000000001
               },
               {
                  "name" : "unmet_hours_tolerance_cooling",
                  "units" : "K",
                  "value" : 0.20000000000000001
               },
               {
                  "name" : "end_use_heating",
                  "units" : "kWh",
                  "value" : 0.0
               },
               {
                  "name" : "end_use_cooling",
                  "units" : "kWh",
                  "value" : 11355.555555555557
               },
               {
                  "name" : "end_use_interior_lighting",
                  "units" : "kWh",
                  "value" : 6572.2222222222217
               },
               {
                  "name" : "end_use_exterior_lighting",
                  "units" : "kWh",
                  "value" : 0.0
               },
               {
                  "name" : "end_use_interior_equipment",
                  "units" : "kWh",
                  "value" : 7208.333333333333
               },
               {
                  "name" : "end_use_exterior_equipment",
                  "units" : "kWh",
                  "value" : 0.0
               },
               {
                  "name" : "end_use_fans",
                  "units" : "kWh",
                  "value" : 2758.3333333333335
               },
               {
                  "name" : "end_use_pumps",
                  "units" : "kWh",
                  "value" : 222.22222222222223
               },
               {
                  "name" : "end_use_heat_rejection",
                  "units" : "kWh",
                  "value" : 0.0
               },
               {
                  "name" : "end_use_humidification",
                  "units" : "kWh",
                  "value" : 0.0
               },
               {
                  "name" : "end_use_heat_recovery",
                  "units" : "kWh",
                  "value" : 1455.5555555555554
               },
               {
                  "name" : "end_use_water_systems",
                  "units" : "kWh",
                  "value" : 0.0
               },
               {
                  "name" : "end_use_refrigeration",
                  "units" : "kWh",
                  "value" : 0.0
               },
               {
                  "name" : "end_use_generators",
                  "units" : "kWh",
                  "value" : 0.0
               },
               {
                  "name" : "fuel_electricity",
                  "units" : "kBtu",
                  "value" : 100895.13245735262
               },
               {
                  "name" : "fuel_natural_gas",
                  "units" : "kBtu",
                  "value" : 0.0
               },
               {
                  "name" : "fuel_gasoline",
                  "units" : "kBtu",
                  "value" : 0.0
               },
               {
                  "name" : "fuel_diesel",
                  "units" : "kBtu",
                  "value" : 0.0
               },
               {
                  "name" : "fuel_coal",
                  "units" : "kBtu",
                  "value" : 0.0
               },
               {
                  "name" : "fuel_fuel_oil_no_1",
                  "units" : "kBtu",
                  "value" : 0.0
               },
               {
                  "name" : "fuel_fuel_oil_no_2",
                  "units" : "kBtu",
                  "value" : 0.0
               },
               {
                  "name" : "fuel_propane",
                  "units" : "kBtu",
                  "value" : 0.0
               },
               {
                  "name" : "fuel_other_fuel_1",
                  "units" : "kBtu",
                  "value" : 0.0
               },
               {
                  "name" : "fuel_other_fuel_2",
                  "units" : "kBtu",
                  "value" : 0.0
               },
               {
                  "name" : "fuel_district_cooling",
                  "units" : "kBtu",
                  "value" : 0.0
               },
               {
                  "name" : "fuel_district_heating_water",
                  "units" : "kBtu",
                  "value" : 0.0
               },
               {
                  "name" : "fuel_district_heating_steam",
                  "units" : "kBtu",
                  "value" : 0.0
               },
               {
                  "name" : "end_use_electricity_heating",
                  "units" : "kWh",
                  "value" : 0.0
               },
               {
                  "name" : "end_use_electricity_cooling",
                  "units" : "kWh",
                  "value" : 11355.555555555557
               },
               {
                  "name" : "end_use_electricity_interior_lighting",
                  "units" : "kWh",
                  "value" : 6572.2222222222217
               },
               {
                  "name" : "end_use_electricity_exterior_lighting",
                  "units" : "kWh",
                  "value" : 0.0
               },
               {
                  "name" : "end_use_electricity_interior_equipment",
                  "units" : "kWh",
                  "value" : 7208.333333333333
               },
               {
                  "name" : "end_use_electricity_exterior_equipment",
                  "units" : "kWh",
                  "value" : 0.0
               },
               {
                  "name" : "end_use_electricity_fans",
                  "units" : "kWh",
                  "value" : 2758.3333333333335
               },
               {
                  "name" : "end_use_electricity_pumps",
                  "units" : "kWh",
                  "value" : 222.22222222222223
               },
               {
                  "name" : "end_use_electricity_heat_rejection",
                  "units" : "kWh",
                  "value" : 0.0
               },
               {
                  "name" : "end_use_electricity_humidification",
                  "units" : "kWh",
                  "value" : 0.0
               },
               {
                  "name" : "end_use_electricity_heat_recovery",
                  "units" : "kWh",
                  "value" : 1455.5555555555554
               },
               {
                  "name" : "end_use_electricity_water_systems",
                  "units" : "kWh",
                  "value" : 0.0
               },
               {
                  "name" : "end_use_electricity_refrigeration",
                  "units" : "kWh",
                  "value" : 0.0
               },
               {
                  "name" : "end_use_electricity_generators",
                  "units" : "kWh",
                  "value" : 0.0
               },
               {
                  "name" : "end_use_natural_gas_heating",
                  "units" : "kWh",
                  "value" : 0.0
               },
               {
                  "name" : "end_use_natural_gas_cooling",
                  "units" : "kWh",
                  "value" : 0.0
               },
               {
                  "name" : "end_use_natural_gas_interior_lighting",
                  "units" : "kWh",
                  "value" : 0.0
               },
               {
                  "name" : "end_use_natural_gas_exterior_lighting",
                  "units" : "kWh",
                  "value" : 0.0
               },
               {
                  "name" : "end_use_natural_gas_interior_equipment",
                  "units" : "kWh",
                  "value" : 0.0
               },
               {
                  "name" : "end_use_natural_gas_exterior_equipment",
                  "units" : "kWh",
                  "value" : 0.0
               },
               {
                  "name" : "end_use_natural_gas_fans",
                  "units" : "kWh",
                  "value" : 0.0
               },
               {
                  "name" : "end_use_natural_gas_pumps",
                  "units" : "kWh",
                  "value" : 0.0
               },
               {
                  "name" : "end_use_natural_gas_heat_rejection",
                  "units" : "kWh",
                  "value" : 0.0
               },
               {
                  "name" : "end_use_natural_gas_humidification",
                  "units" : "kWh",
                  "value" : 0.0
               },
               {
                  "name" : "end_use_natural_gas_heat_recovery",
                  "units" : "kWh",
                  "value" : 0.0
               },
               {
                  "name" : "end_use_natural_gas_water_systems",
                  "units" : "kWh",
                  "value" : 0.0
               },
               {
                  "name" : "end_use_natural_gas_refrigeration",
                  "units" : "kWh",
                  "value" : 0.0
               },
               {
                  "name" : "end_use_natural_gas_generators",
                  "units" : "kWh",
                  "value" : 0.0
               },
               {
                  "name" : "electricity_heating_ip",
                  "units" : "kWh",
                  "value" : 0.0
               },
               {
                  "name" : "electricity_cooling_ip",
                  "units" : "kWh",
                  "value" : 11355.255555555555
               },
               {
                  "name" : "electricity_interior_lighting_ip",
                  "units" : "kWh",
                  "value" : 6571.9472222222221
               },
               {
                  "name" : "electricity_exterior_lighting_ip",
                  "units" : "kWh",
                  "value" : 0.0
               },
               {
                  "name" : "electricity_interior_equipment_ip",
                  "units" : "kWh",
                  "value" : 7208.5333333333328
               },
               {
                  "name" : "electricity_exterior_equipment_ip",
                  "units" : "kWh",
                  "value" : 0.0
               },
               {
                  "name" : "electricity_fans_ip",
                  "units" : "kWh",
                  "value" : 2758.9075000000003
               },
               {
                  "name" : "electricity_pumps_ip",
                  "units" : "kWh",
                  "value" : 221.00044638611109
               },
               {
                  "name" : "electricity_heat_rejection_ip",
                  "units" : "kWh",
                  "value" : 0.0
               },
               {
                  "name" : "electricity_humidification_ip",
                  "units" : "kWh",
                  "value" : 0.0
               },
               {
                  "name" : "electricity_heat_recovery_ip",
                  "units" : "kWh",
                  "value" : 1454.2052777777778
               },
               {
                  "name" : "electricity_water_systems_ip",
                  "units" : "kWh",
                  "value" : 0.0
               },
               {
                  "name" : "electricity_refrigeration_ip",
                  "units" : "kWh",
                  "value" : 0.0
               },
               {
                  "name" : "electricity_generators_ip",
                  "units" : "kWh",
                  "value" : 0.0
               },
               {
                  "name" : "electricity_ip",
                  "units" : "kWh",
                  "value" : 29569.849335275001
               },
               {
                  "name" : "natural_gas_heating_ip",
                  "units" : "kWh",
                  "value" : 0.0
               },
               {
                  "name" : "natural_gas_cooling_ip",
                  "units" : "kWh",
                  "value" : 0.0
               },
               {
                  "name" : "natural_gas_interior_lighting_ip",
                  "units" : "kWh",
                  "value" : 0.0
               },
               {
                  "name" : "natural_gas_exterior_lighting_ip",
                  "units" : "kWh",
                  "value" : 0.0
               },
               {
                  "name" : "natural_gas_interior_equipment_ip",
                  "units" : "kWh",
                  "value" : 0.0
               },
               {
                  "name" : "natural_gas_exterior_equipment_ip",
                  "units" : "kWh",
                  "value" : 0.0
               },
               {
                  "name" : "natural_gas_fans_ip",
                  "units" : "kWh",
                  "value" : 0.0
               },
               {
                  "name" : "natural_gas_pumps_ip",
                  "units" : "kWh",
                  "value" : 0.0
               },
               {
                  "name" : "natural_gas_heat_rejection_ip",
                  "units" : "kWh",
                  "value" : 0.0
               },
               {
                  "name" : "natural_gas_humidification_ip",
                  "units" : "kWh",
                  "value" : 0.0
               },
               {
                  "name" : "natural_gas_heat_recovery_ip",
                  "units" : "kWh",
                  "value" : 0.0
               },
               {
                  "name" : "natural_gas_water_systems_ip",
                  "units" : "kWh",
                  "value" : 0.0
               },
               {
                  "name" : "natural_gas_refrigeration_ip",
                  "units" : "kWh",
                  "value" : 0.0
               },
               {
                  "name" : "natural_gas_generators_ip",
                  "units" : "kWh",
                  "value" : 0.0
               },
               {
                  "name" : "natural_gas_ip",
                  "units" : "kWh",
                  "value" : 0.0
               },
               {
                  "name" : "gasoline_heating_ip",
                  "units" : "kWh",
                  "value" : 0.0
               },
               {
                  "name" : "gasoline_cooling_ip",
                  "units" : "kWh",
                  "value" : 0.0
               },
               {
                  "name" : "gasoline_interior_lighting_ip",
                  "units" : "kWh",
                  "value" : 0.0
               },
               {
                  "name" : "gasoline_exterior_lighting_ip",
                  "units" : "kWh",
                  "value" : 0.0
               },
               {
                  "name" : "gasoline_interior_equipment_ip",
                  "units" : "kWh",
                  "value" : 0.0
               },
               {
                  "name" : "gasoline_exterior_equipment_ip",
                  "units" : "kWh",
                  "value" : 0.0
               },
               {
                  "name" : "gasoline_fans_ip",
                  "units" : "kWh",
                  "value" : 0.0
               },
               {
                  "name" : "gasoline_pumps_ip",
                  "units" : "kWh",
                  "value" : 0.0
               },
               {
                  "name" : "gasoline_heat_rejection_ip",
                  "units" : "kWh",
                  "value" : 0.0
               },
               {
                  "name" : "gasoline_humidification_ip",
                  "units" : "kWh",
                  "value" : 0.0
               },
               {
                  "name" : "gasoline_heat_recovery_ip",
                  "units" : "kWh",
                  "value" : 0.0
               },
               {
                  "name" : "gasoline_water_systems_ip",
                  "units" : "kWh",
                  "value" : 0.0
               },
               {
                  "name" : "gasoline_refrigeration_ip",
                  "units" : "kWh",
                  "value" : 0.0
               },
               {
                  "name" : "gasoline_generators_ip",
                  "units" : "kWh",
                  "value" : 0.0
               },
               {
                  "name" : "gasoline_ip",
                  "units" : "kWh",
                  "value" : 0.0
               },
               {
                  "name" : "diesel_heating_ip",
                  "units" : "kWh",
                  "value" : 0.0
               },
               {
                  "name" : "diesel_cooling_ip",
                  "units" : "kWh",
                  "value" : 0.0
               },
               {
                  "name" : "diesel_interior_lighting_ip",
                  "units" : "kWh",
                  "value" : 0.0
               },
               {
                  "name" : "diesel_exterior_lighting_ip",
                  "units" : "kWh",
                  "value" : 0.0
               },
               {
                  "name" : "diesel_interior_equipment_ip",
                  "units" : "kWh",
                  "value" : 0.0
               },
               {
                  "name" : "diesel_exterior_equipment_ip",
                  "units" : "kWh",
                  "value" : 0.0
               },
               {
                  "name" : "diesel_fans_ip",
                  "units" : "kWh",
                  "value" : 0.0
               },
               {
                  "name" : "diesel_pumps_ip",
                  "units" : "kWh",
                  "value" : 0.0
               },
               {
                  "name" : "diesel_heat_rejection_ip",
                  "units" : "kWh",
                  "value" : 0.0
               },
               {
                  "name" : "diesel_humidification_ip",
                  "units" : "kWh",
                  "value" : 0.0
               },
               {
                  "name" : "diesel_heat_recovery_ip",
                  "units" : "kWh",
                  "value" : 0.0
               },
               {
                  "name" : "diesel_water_systems_ip",
                  "units" : "kWh",
                  "value" : 0.0
               },
               {
                  "name" : "diesel_refrigeration_ip",
                  "units" : "kWh",
                  "value" : 0.0
               },
               {
                  "name" : "diesel_generators_ip",
                  "units" : "kWh",
                  "value" : 0.0
               },
               {
                  "name" : "diesel_ip",
                  "units" : "kWh",
                  "value" : 0.0
               },
               {
                  "name" : "coal_heating_ip",
                  "units" : "kWh",
                  "value" : 0.0
               },
               {
                  "name" : "coal_cooling_ip",
                  "units" : "kWh",
                  "value" : 0.0
               },
               {
                  "name" : "coal_interior_lighting_ip",
                  "units" : "kWh",
                  "value" : 0.0
               },
               {
                  "name" : "coal_exterior_lighting_ip",
                  "units" : "kWh",
                  "value" : 0.0
               },
               {
                  "name" : "coal_interior_equipment_ip",
                  "units" : "kWh",
                  "value" : 0.0
               },
               {
                  "name" : "coal_exterior_equipment_ip",
                  "units" : "kWh",
                  "value" : 0.0
               },
               {
                  "name" : "coal_fans_ip",
                  "units" : "kWh",
                  "value" : 0.0
               },
               {
                  "name" : "coal_pumps_ip",
                  "units" : "kWh",
                  "value" : 0.0
               },
               {
                  "name" : "coal_heat_rejection_ip",
                  "units" : "kWh",
                  "value" : 0.0
               },
               {
                  "name" : "coal_humidification_ip",
                  "units" : "kWh",
                  "value" : 0.0
               },
               {
                  "name" : "coal_heat_recovery_ip",
                  "units" : "kWh",
                  "value" : 0.0
               },
               {
                  "name" : "coal_water_systems_ip",
                  "units" : "kWh",
                  "value" : 0.0
               },
               {
                  "name" : "coal_refrigeration_ip",
                  "units" : "kWh",
                  "value" : 0.0
               },
               {
                  "name" : "coal_generators_ip",
                  "units" : "kWh",
                  "value" : 0.0
               },
               {
                  "name" : "coal_ip",
                  "units" : "kWh",
                  "value" : 0.0
               },
               {
                  "name" : "fuel_oil_no_1_heating_ip",
                  "units" : "kWh",
                  "value" : 0.0
               },
               {
                  "name" : "fuel_oil_no_1_cooling_ip",
                  "units" : "kWh",
                  "value" : 0.0
               },
               {
                  "name" : "fuel_oil_no_1_interior_lighting_ip",
                  "units" : "kWh",
                  "value" : 0.0
               },
               {
                  "name" : "fuel_oil_no_1_exterior_lighting_ip",
                  "units" : "kWh",
                  "value" : 0.0
               },
               {
                  "name" : "fuel_oil_no_1_interior_equipment_ip",
                  "units" : "kWh",
                  "value" : 0.0
               },
               {
                  "name" : "fuel_oil_no_1_exterior_equipment_ip",
                  "units" : "kWh",
                  "value" : 0.0
               },
               {
                  "name" : "fuel_oil_no_1_fans_ip",
                  "units" : "kWh",
                  "value" : 0.0
               },
               {
                  "name" : "fuel_oil_no_1_pumps_ip",
                  "units" : "kWh",
                  "value" : 0.0
               },
               {
                  "name" : "fuel_oil_no_1_heat_rejection_ip",
                  "units" : "kWh",
                  "value" : 0.0
               },
               {
                  "name" : "fuel_oil_no_1_humidification_ip",
                  "units" : "kWh",
                  "value" : 0.0
               },
               {
                  "name" : "fuel_oil_no_1_heat_recovery_ip",
                  "units" : "kWh",
                  "value" : 0.0
               },
               {
                  "name" : "fuel_oil_no_1_water_systems_ip",
                  "units" : "kWh",
                  "value" : 0.0
               },
               {
                  "name" : "fuel_oil_no_1_refrigeration_ip",
                  "units" : "kWh",
                  "value" : 0.0
               },
               {
                  "name" : "fuel_oil_no_1_generators_ip",
                  "units" : "kWh",
                  "value" : 0.0
               },
               {
                  "name" : "fuel_oil_no_1_ip",
                  "units" : "kWh",
                  "value" : 0.0
               },
               {
                  "name" : "fuel_oil_no_2_heating_ip",
                  "units" : "kWh",
                  "value" : 0.0
               },
               {
                  "name" : "fuel_oil_no_2_cooling_ip",
                  "units" : "kWh",
                  "value" : 0.0
               },
               {
                  "name" : "fuel_oil_no_2_interior_lighting_ip",
                  "units" : "kWh",
                  "value" : 0.0
               },
               {
                  "name" : "fuel_oil_no_2_exterior_lighting_ip",
                  "units" : "kWh",
                  "value" : 0.0
               },
               {
                  "name" : "fuel_oil_no_2_interior_equipment_ip",
                  "units" : "kWh",
                  "value" : 0.0
               },
               {
                  "name" : "fuel_oil_no_2_exterior_equipment_ip",
                  "units" : "kWh",
                  "value" : 0.0
               },
               {
                  "name" : "fuel_oil_no_2_fans_ip",
                  "units" : "kWh",
                  "value" : 0.0
               },
               {
                  "name" : "fuel_oil_no_2_pumps_ip",
                  "units" : "kWh",
                  "value" : 0.0
               },
               {
                  "name" : "fuel_oil_no_2_heat_rejection_ip",
                  "units" : "kWh",
                  "value" : 0.0
               },
               {
                  "name" : "fuel_oil_no_2_humidification_ip",
                  "units" : "kWh",
                  "value" : 0.0
               },
               {
                  "name" : "fuel_oil_no_2_heat_recovery_ip",
                  "units" : "kWh",
                  "value" : 0.0
               },
               {
                  "name" : "fuel_oil_no_2_water_systems_ip",
                  "units" : "kWh",
                  "value" : 0.0
               },
               {
                  "name" : "fuel_oil_no_2_refrigeration_ip",
                  "units" : "kWh",
                  "value" : 0.0
               },
               {
                  "name" : "fuel_oil_no_2_generators_ip",
                  "units" : "kWh",
                  "value" : 0.0
               },
               {
                  "name" : "fuel_oil_no_2_ip",
                  "units" : "kWh",
                  "value" : 0.0
               },
               {
                  "name" : "propane_heating_ip",
                  "units" : "kWh",
                  "value" : 0.0
               },
               {
                  "name" : "propane_cooling_ip",
                  "units" : "kWh",
                  "value" : 0.0
               },
               {
                  "name" : "propane_interior_lighting_ip",
                  "units" : "kWh",
                  "value" : 0.0
               },
               {
                  "name" : "propane_exterior_lighting_ip",
                  "units" : "kWh",
                  "value" : 0.0
               },
               {
                  "name" : "propane_interior_equipment_ip",
                  "units" : "kWh",
                  "value" : 0.0
               },
               {
                  "name" : "propane_exterior_equipment_ip",
                  "units" : "kWh",
                  "value" : 0.0
               },
               {
                  "name" : "propane_fans_ip",
                  "units" : "kWh",
                  "value" : 0.0
               },
               {
                  "name" : "propane_pumps_ip",
                  "units" : "kWh",
                  "value" : 0.0
               },
               {
                  "name" : "propane_heat_rejection_ip",
                  "units" : "kWh",
                  "value" : 0.0
               },
               {
                  "name" : "propane_humidification_ip",
                  "units" : "kWh",
                  "value" : 0.0
               },
               {
                  "name" : "propane_heat_recovery_ip",
                  "units" : "kWh",
                  "value" : 0.0
               },
               {
                  "name" : "propane_water_systems_ip",
                  "units" : "kWh",
                  "value" : 0.0
               },
               {
                  "name" : "propane_refrigeration_ip",
                  "units" : "kWh",
                  "value" : 0.0
               },
               {
                  "name" : "propane_generators_ip",
                  "units" : "kWh",
                  "value" : 0.0
               },
               {
                  "name" : "propane_ip",
                  "units" : "kWh",
                  "value" : 0.0
               },
               {
                  "name" : "other_fuel_1_heating_ip",
                  "units" : "kWh",
                  "value" : 0.0
               },
               {
                  "name" : "other_fuel_1_cooling_ip",
                  "units" : "kWh",
                  "value" : 0.0
               },
               {
                  "name" : "other_fuel_1_interior_lighting_ip",
                  "units" : "kWh",
                  "value" : 0.0
               },
               {
                  "name" : "other_fuel_1_exterior_lighting_ip",
                  "units" : "kWh",
                  "value" : 0.0
               },
               {
                  "name" : "other_fuel_1_interior_equipment_ip",
                  "units" : "kWh",
                  "value" : 0.0
               },
               {
                  "name" : "other_fuel_1_exterior_equipment_ip",
                  "units" : "kWh",
                  "value" : 0.0
               },
               {
                  "name" : "other_fuel_1_fans_ip",
                  "units" : "kWh",
                  "value" : 0.0
               },
               {
                  "name" : "other_fuel_1_pumps_ip",
                  "units" : "kWh",
                  "value" : 0.0
               },
               {
                  "name" : "other_fuel_1_heat_rejection_ip",
                  "units" : "kWh",
                  "value" : 0.0
               },
               {
                  "name" : "other_fuel_1_humidification_ip",
                  "units" : "kWh",
                  "value" : 0.0
               },
               {
                  "name" : "other_fuel_1_heat_recovery_ip",
                  "units" : "kWh",
                  "value" : 0.0
               },
               {
                  "name" : "other_fuel_1_water_systems_ip",
                  "units" : "kWh",
                  "value" : 0.0
               },
               {
                  "name" : "other_fuel_1_refrigeration_ip",
                  "units" : "kWh",
                  "value" : 0.0
               },
               {
                  "name" : "other_fuel_1_generators_ip",
                  "units" : "kWh",
                  "value" : 0.0
               },
               {
                  "name" : "other_fuel_1_ip",
                  "units" : "kWh",
                  "value" : 0.0
               },
               {
                  "name" : "other_fuel_2_heating_ip",
                  "units" : "kWh",
                  "value" : 0.0
               },
               {
                  "name" : "other_fuel_2_cooling_ip",
                  "units" : "kWh",
                  "value" : 0.0
               },
               {
                  "name" : "other_fuel_2_interior_lighting_ip",
                  "units" : "kWh",
                  "value" : 0.0
               },
               {
                  "name" : "other_fuel_2_exterior_lighting_ip",
                  "units" : "kWh",
                  "value" : 0.0
               },
               {
                  "name" : "other_fuel_2_interior_equipment_ip",
                  "units" : "kWh",
                  "value" : 0.0
               },
               {
                  "name" : "other_fuel_2_exterior_equipment_ip",
                  "units" : "kWh",
                  "value" : 0.0
               },
               {
                  "name" : "other_fuel_2_fans_ip",
                  "units" : "kWh",
                  "value" : 0.0
               },
               {
                  "name" : "other_fuel_2_pumps_ip",
                  "units" : "kWh",
                  "value" : 0.0
               },
               {
                  "name" : "other_fuel_2_heat_rejection_ip",
                  "units" : "kWh",
                  "value" : 0.0
               },
               {
                  "name" : "other_fuel_2_humidification_ip",
                  "units" : "kWh",
                  "value" : 0.0
               },
               {
                  "name" : "other_fuel_2_heat_recovery_ip",
                  "units" : "kWh",
                  "value" : 0.0
               },
               {
                  "name" : "other_fuel_2_water_systems_ip",
                  "units" : "kWh",
                  "value" : 0.0
               },
               {
                  "name" : "other_fuel_2_refrigeration_ip",
                  "units" : "kWh",
                  "value" : 0.0
               },
               {
                  "name" : "other_fuel_2_generators_ip",
                  "units" : "kWh",
                  "value" : 0.0
               },
               {
                  "name" : "other_fuel_2_ip",
                  "units" : "kWh",
                  "value" : 0.0
               },
               {
                  "name" : "district_cooling_heating_ip",
                  "units" : "kWh",
                  "value" : 0.0
               },
               {
                  "name" : "district_cooling_cooling_ip",
                  "units" : "kWh",
                  "value" : 0.0
               },
               {
                  "name" : "district_cooling_interior_lighting_ip",
                  "units" : "kWh",
                  "value" : 0.0
               },
               {
                  "name" : "district_cooling_exterior_lighting_ip",
                  "units" : "kWh",
                  "value" : 0.0
               },
               {
                  "name" : "district_cooling_interior_equipment_ip",
                  "units" : "kWh",
                  "value" : 0.0
               },
               {
                  "name" : "district_cooling_exterior_equipment_ip",
                  "units" : "kWh",
                  "value" : 0.0
               },
               {
                  "name" : "district_cooling_fans_ip",
                  "units" : "kWh",
                  "value" : 0.0
               },
               {
                  "name" : "district_cooling_pumps_ip",
                  "units" : "kWh",
                  "value" : 0.0
               },
               {
                  "name" : "district_cooling_heat_rejection_ip",
                  "units" : "kWh",
                  "value" : 0.0
               },
               {
                  "name" : "district_cooling_humidification_ip",
                  "units" : "kWh",
                  "value" : 0.0
               },
               {
                  "name" : "district_cooling_heat_recovery_ip",
                  "units" : "kWh",
                  "value" : 0.0
               },
               {
                  "name" : "district_cooling_water_systems_ip",
                  "units" : "kWh",
                  "value" : 0.0
               },
               {
                  "name" : "district_cooling_refrigeration_ip",
                  "units" : "kWh",
                  "value" : 0.0
               },
               {
                  "name" : "district_cooling_generators_ip",
                  "units" : "kWh",
                  "value" : 0.0
               },
               {
                  "name" : "district_cooling_ip",
                  "units" : "kWh",
                  "value" : 0.0
               },
               {
                  "name" : "district_heating_water_heating_ip",
                  "units" : "kWh",
                  "value" : 0.0
               },
               {
                  "name" : "district_heating_water_cooling_ip",
                  "units" : "kWh",
                  "value" : 0.0
               },
               {
                  "name" : "district_heating_water_interior_lighting_ip",
                  "units" : "kWh",
                  "value" : 0.0
               },
               {
                  "name" : "district_heating_water_exterior_lighting_ip",
                  "units" : "kWh",
                  "value" : 0.0
               },
               {
                  "name" : "district_heating_water_interior_equipment_ip",
                  "units" : "kWh",
                  "value" : 0.0
               },
               {
                  "name" : "district_heating_water_exterior_equipment_ip",
                  "units" : "kWh",
                  "value" : 0.0
               },
               {
                  "name" : "district_heating_water_fans_ip",
                  "units" : "kWh",
                  "value" : 0.0
               },
               {
                  "name" : "district_heating_water_pumps_ip",
                  "units" : "kWh",
                  "value" : 0.0
               },
               {
                  "name" : "district_heating_water_heat_rejection_ip",
                  "units" : "kWh",
                  "value" : 0.0
               },
               {
                  "name" : "district_heating_water_humidification_ip",
                  "units" : "kWh",
                  "value" : 0.0
               },
               {
                  "name" : "district_heating_water_heat_recovery_ip",
                  "units" : "kWh",
                  "value" : 0.0
               },
               {
                  "name" : "district_heating_water_water_systems_ip",
                  "units" : "kWh",
                  "value" : 0.0
               },
               {
                  "name" : "district_heating_water_refrigeration_ip",
                  "units" : "kWh",
                  "value" : 0.0
               },
               {
                  "name" : "district_heating_water_generators_ip",
                  "units" : "kWh",
                  "value" : 0.0
               },
               {
                  "name" : "district_heating_water_ip",
                  "units" : "kWh",
                  "value" : 0.0
               },
               {
                  "name" : "district_heating_steam_heating_ip",
                  "units" : "kWh",
                  "value" : 0.0
               },
               {
                  "name" : "district_heating_steam_cooling_ip",
                  "units" : "kWh",
                  "value" : 0.0
               },
               {
                  "name" : "district_heating_steam_interior_lighting_ip",
                  "units" : "kWh",
                  "value" : 0.0
               },
               {
                  "name" : "district_heating_steam_exterior_lighting_ip",
                  "units" : "kWh",
                  "value" : 0.0
               },
               {
                  "name" : "district_heating_steam_interior_equipment_ip",
                  "units" : "kWh",
                  "value" : 0.0
               },
               {
                  "name" : "district_heating_steam_exterior_equipment_ip",
                  "units" : "kWh",
                  "value" : 0.0
               },
               {
                  "name" : "district_heating_steam_fans_ip",
                  "units" : "kWh",
                  "value" : 0.0
               },
               {
                  "name" : "district_heating_steam_pumps_ip",
                  "units" : "kWh",
                  "value" : 0.0
               },
               {
                  "name" : "district_heating_steam_heat_rejection_ip",
                  "units" : "kWh",
                  "value" : 0.0
               },
               {
                  "name" : "district_heating_steam_humidification_ip",
                  "units" : "kWh",
                  "value" : 0.0
               },
               {
                  "name" : "district_heating_steam_heat_recovery_ip",
                  "units" : "kWh",
                  "value" : 0.0
               },
               {
                  "name" : "district_heating_steam_water_systems_ip",
                  "units" : "kWh",
                  "value" : 0.0
               },
               {
                  "name" : "district_heating_steam_refrigeration_ip",
                  "units" : "kWh",
                  "value" : 0.0
               },
               {
                  "name" : "district_heating_steam_generators_ip",
                  "units" : "kWh",
                  "value" : 0.0
               },
               {
                  "name" : "district_heating_steam_ip",
                  "units" : "kWh",
                  "value" : 0.0
               },
               {
                  "name" : "int_wall",
                  "units" : "m^2",
                  "value" : 508.96219877184456
               },
               {
                  "name" : "res_ext_wall_grd",
                  "units" : "m^2",
                  "value" : 739.08894419999979
               },
               {
                  "name" : "res_roof_floor",
                  "units" : "m^2",
                  "value" : 1167.1187245836468
               },
               {
                  "name" : "radiant_exterior_ceiling_slab_construction",
                  "units" : "m^2",
                  "value" : 511.1574
               },
               {
                  "name" : "swinging_door_con",
                  "units" : "m^2",
                  "value" : 3.9002208000000023
               },
               {
                  "name" : "window_u_0_504_shgc_north_0_229",
                  "units" : "m^2",
                  "value" : 59.647019999999998
               },
               {
                  "name" : "gross_window_wall_ratio",
                  "units" : "%",
                  "value" : 7.4500000000000002
               },
               {
                  "name" : "gross_window_wall_ratio_conditioned",
                  "units" : "%",
                  "value" : 7.4500000000000002
               },
               {
                  "name" : "skylight_roof_ratio",
                  "units" : "%",
                  "value" : 0.0
               },
               {
                  "name" : "space_type_no_space_type",
                  "units" : "m^2",
                  "value" : 511.1574
               },
               {
                  "name" : "zone_max_hours_over_70_rh",
                  "units" : "hr",
                  "value" : 6363.0
               },
               {
                  "name" : "zone_max_hours_over_55_rh",
                  "units" : "hr",
                  "value" : 8013.0
               },
               {
                  "name" : "num_zones_x_hours_over_70",
                  "units" : "zones",
                  "value" : 6
               },
               {
                  "name" : "num_zones_x_hours_over_55",
                  "units" : "zones",
                  "value" : 6
               },
               {
                  "name" : "inflation_approach",
                  "value" : "Constant Dollar"
               },
               {
                  "name" : "analysis_length",
                  "units" : "yrs",
                  "value" : 25
               },
               {
                  "name" : "number_of_measures_with_warnings",
                  "value" : 1
               },
               {
                  "name" : "number_warnings",
                  "value" : 1
               },
               {
                  "name" : "annual_peak_electric_demand",
                  "units" : "kW",
                  "value" : 15.66835
               },
               {
                  "name" : "first_year_capital_cost",
                  "units" : "$",
                  "value" : 0.0
               },
               {
                  "name" : "annual_utility_cost",
                  "units" : "$",
                  "value" : 0.0
               },
               {
                  "name" : "total_lifecycle_cost",
                  "units" : "$",
                  "value" : 0.0
               }
            ],
            "step_warnings" : 
            [
               "Zone Equipment Detail section failed and was skipped because: undefined method `maxWaterFlowRate' for #<OpenStudio::Model::OptionalHVACComponent:0x000060d00ebc8bc8>. Detail on error follows: /home/chenkianwee/kianwee_work/code_workspace/10.ifc2osmod/ifc2osmod/results/osmod/small_office_wrkflw/measures/openstudio_results/resources/Siz.ZoneHVACLowTempRadiantVarFlow.rb:9:in `maxWaterFlowRate'\n/home/chenkianwee/kianwee_work/code_workspace/10.ifc2osmod/ifc2osmod/results/osmod/small_office_wrkflw/measures/openstudio_results/resources/Siz.HVACComponent.rb:44:in `maxWaterFlowRate'\n/home/chenkianwee/kianwee_work/code_workspace/10.ifc2osmod/ifc2osmod/results/osmod/small_office_wrkflw/measures/openstudio_results/resources/os_lib_reporting.rb:865:in `public_send'\n/home/chenkianwee/kianwee_work/code_workspace/10.ifc2osmod/ifc2osmod/results/osmod/small_office_wrkflw/measures/openstudio_results/resources/os_lib_reporting.rb:865:in `block in general_component_summary_logic'\n/home/chenkianwee/kianwee_work/code_workspace/10.ifc2osmod/ifc2osmod/results/osmod/small_office_wrkflw/measures/openstudio_results/resources/os_lib_reporting.rb:854:in `each'\n/home/chenkianwee/kianwee_work/code_workspace/10.ifc2osmod/ifc2osmod/results/osmod/small_office_wrkflw/measures/openstudio_results/resources/os_lib_reporting.rb:854:in `general_component_summary_logic'\n/home/chenkianwee/kianwee_work/code_workspace/10.ifc2osmod/ifc2osmod/results/osmod/small_office_wrkflw/measures/openstudio_results/resources/os_lib_reporting.rb:1536:in `zone_equipment_component_summary_logic'\n/home/chenkianwee/kianwee_work/code_workspace/10.ifc2osmod/ifc2osmod/results/osmod/small_office_wrkflw/measures/openstudio_results/resources/os_lib_reporting.rb:1570:in `block (2 levels) in zone_equipment_detail_section'\n/home/chenkianwee/kianwee_work/code_workspace/10.ifc2osmod/ifc2osmod/results/osmod/small_office_wrkflw/measures/openstudio_results/resources/os_lib_reporting.rb:1568:in `each'\n/home/chenkianwee/kianwee_work/code_workspace/10.ifc2osmod/ifc2osmod/results/osmod/small_office_wrkflw/measures/openstudio_results/resources/os_lib_reporting.rb:1568:in `block in zone_equipment_detail_section'\n/home/chenkianwee/kianwee_work/code_workspace/10.ifc2osmod/ifc2osmod/results/osmod/small_office_wrkflw/measures/openstudio_results/resources/os_lib_reporting.rb:1560:in `each'\n/home/chenkianwee/kianwee_work/code_workspace/10.ifc2osmod/ifc2osmod/results/osmod/small_office_wrkflw/measures/openstudio_results/resources/os_lib_reporting.rb:1560:in `zone_equipment_detail_section'\n(eval):1:in `block in run'\n/home/chenkianwee/kianwee_work/code_workspace/10.ifc2osmod/ifc2osmod/results/osmod/small_office_wrkflw/measures/openstudio_results/measure.rb:261:in `eval'\n/home/chenkianwee/kianwee_work/code_workspace/10.ifc2osmod/ifc2osmod/results/osmod/small_office_wrkflw/measures/openstudio_results/measure.rb:261:in `block in run'\n/home/chenkianwee/kianwee_work/code_workspace/10.ifc2osmod/ifc2osmod/results/osmod/small_office_wrkflw/measures/openstudio_results/measure.rb:258:in `each'\n/home/chenkianwee/kianwee_work/code_workspace/10.ifc2osmod/ifc2osmod/results/osmod/small_office_wrkflw/measures/openstudio_results/measure.rb:258:in `run'"
            ]
         }
      }
   ],
   "updated_at" : "20240821T140954Z"
}