Program Version,EnergyPlus, Version 23.2.0-7636e6b3e9, YMD=2024.09.05 10:18,
   ************* Beginning Zone Sizing Calculations
   ** Warning ** Site:GroundTemperature:BuildingSurface: Some values fall outside the range of 15-25C.
   **   ~~~   ** These values may be inappropriate.  Please consult the Input Output Reference for more details.
   ** Warning ** ProcessScheduleInput: Schedule:Constant="ALWAYS ON CONTINUOUS", Blank Schedule Type Limits Name input -- will not be validated.
   ** Warning ** Inside surface heat balance did not converge with Max Temp Difference [C] =0.270 vs Max Allowed Temp Diff [C] =2.000000E-003
   **   ~~~   **  During Sizing, Environment=MIAMI INTL AP ANN CLG .4% CONDNS DB=>MWB, at Simulation time=07/21 17:30 - 17:35
   ** Warning ** Inside surface heat balance did not converge with Max Temp Difference [C] =0.212 vs Max Allowed Temp Diff [C] =2.000000E-003
   **   ~~~   **  During Sizing, Environment=MIAMI INTL AP ANN CLG .4% CONDNS DB=>MWB, at Simulation time=07/21 17:40 - 17:45
   ** Warning ** Calculated design heating load for zone=CORE_ZN_TZONE is zero.
   **   ~~~   ** Check Sizing:Zone and ZoneControl:Thermostat inputs.
   ** Warning ** Calculated design heating load for zone=PERIMETER_ZN_1_TZONE is zero.
   **   ~~~   ** Check Sizing:Zone and ZoneControl:Thermostat inputs.
   ** Warning ** Calculated design heating load for zone=PERIMETER_ZN_2_TZONE is zero.
   **   ~~~   ** Check Sizing:Zone and ZoneControl:Thermostat inputs.
   ** Warning ** Calculated design heating load for zone=PERIMETER_ZN_3_TZONE is zero.
   **   ~~~   ** Check Sizing:Zone and ZoneControl:Thermostat inputs.
   ** Warning ** Calculated design heating load for zone=PERIMETER_ZN_4_TZONE is zero.
   **   ~~~   ** Check Sizing:Zone and ZoneControl:Thermostat inputs.
   ** Warning ** The Standard Ratings is calculated for Coil:Cooling:DX:SingleSpeed = CORE_ZN_TZONEPTAC 1SPD DX AC CLG COIL but not at the AHRI test condition due to curve out of bound.
   **   ~~~   **  Review the Standard Ratings calculations in the Engineering Reference for this coil type. Also, use Output:Diagnostics, DisplayExtraWarnings for further guidance.
   ** Warning ** The Standard Ratings is calculated for Coil:Cooling:DX:SingleSpeed = PERIMETER_ZN_1_TZONEPTAC 1SPD DX AC CLG COIL but not at the AHRI test condition due to curve out of bound.
   **   ~~~   **  Review the Standard Ratings calculations in the Engineering Reference for this coil type. Also, use Output:Diagnostics, DisplayExtraWarnings for further guidance.
   ** Warning ** The Standard Ratings is calculated for Coil:Cooling:DX:SingleSpeed = PERIMETER_ZN_2_TZONEPTAC 1SPD DX AC CLG COIL but not at the AHRI test condition due to curve out of bound.
   **   ~~~   **  Review the Standard Ratings calculations in the Engineering Reference for this coil type. Also, use Output:Diagnostics, DisplayExtraWarnings for further guidance.
   ** Warning ** The Standard Ratings is calculated for Coil:Cooling:DX:SingleSpeed = PERIMETER_ZN_3_TZONEPTAC 1SPD DX AC CLG COIL but not at the AHRI test condition due to curve out of bound.
   **   ~~~   **  Review the Standard Ratings calculations in the Engineering Reference for this coil type. Also, use Output:Diagnostics, DisplayExtraWarnings for further guidance.
   ** Warning ** The Standard Ratings is calculated for Coil:Cooling:DX:SingleSpeed = PERIMETER_ZN_4_TZONEPTAC 1SPD DX AC CLG COIL but not at the AHRI test condition due to curve out of bound.
   **   ~~~   **  Review the Standard Ratings calculations in the Engineering Reference for this coil type. Also, use Output:Diagnostics, DisplayExtraWarnings for further guidance.
   ** Warning ** ZoneHVAC:PackagedTerminalAirConditioner "CORE_ZN_TZONE PTAC"
   **   ~~~   ** ...For fan type and name = Fan:OnOff "CORE_ZN_TZONEPTAC_FAN"
   **   ~~~   ** ...Fan power ratio function of speed ratio curve has no impact if fan volumetric flow rate is the same as the unitary system volumetric flow rate.
   **   ~~~   ** ...Fan volumetric flow rate            = 0.58350 m3/s.
   **   ~~~   ** ...Unitary system volumetric flow rate = 0.58350 m3/s.
   ** Warning ** ZoneHVAC:PackagedTerminalAirConditioner "PERIMETER_ZN_1_TZONE PTAC"
   **   ~~~   ** ...For fan type and name = Fan:OnOff "PERIMETER_ZN_1_TZONEPTAC_FAN"
   **   ~~~   ** ...Fan power ratio function of speed ratio curve has no impact if fan volumetric flow rate is the same as the unitary system volumetric flow rate.
   **   ~~~   ** ...Fan volumetric flow rate            = 0.45928 m3/s.
   **   ~~~   ** ...Unitary system volumetric flow rate = 0.45928 m3/s.
   ** Warning ** ZoneHVAC:PackagedTerminalAirConditioner "PERIMETER_ZN_2_TZONE PTAC"
   **   ~~~   ** ...For fan type and name = Fan:OnOff "PERIMETER_ZN_2_TZONEPTAC_FAN"
   **   ~~~   ** ...Fan power ratio function of speed ratio curve has no impact if fan volumetric flow rate is the same as the unitary system volumetric flow rate.
   **   ~~~   ** ...Fan volumetric flow rate            = 0.55623 m3/s.
   **   ~~~   ** ...Unitary system volumetric flow rate = 0.55623 m3/s.
   ** Warning ** ZoneHVAC:PackagedTerminalAirConditioner "PERIMETER_ZN_3_TZONE PTAC"
   **   ~~~   ** ...For fan type and name = Fan:OnOff "PERIMETER_ZN_3_TZONEPTAC_FAN"
   **   ~~~   ** ...Fan power ratio function of speed ratio curve has no impact if fan volumetric flow rate is the same as the unitary system volumetric flow rate.
   **   ~~~   ** ...Fan volumetric flow rate            = 0.45758 m3/s.
   **   ~~~   ** ...Unitary system volumetric flow rate = 0.45758 m3/s.
   ** Warning ** ZoneHVAC:PackagedTerminalAirConditioner "PERIMETER_ZN_4_TZONE PTAC"
   **   ~~~   ** ...For fan type and name = Fan:OnOff "PERIMETER_ZN_4_TZONEPTAC_FAN"
   **   ~~~   ** ...Fan power ratio function of speed ratio curve has no impact if fan volumetric flow rate is the same as the unitary system volumetric flow rate.
   **   ~~~   ** ...Fan volumetric flow rate            = 0.47798 m3/s.
   **   ~~~   ** ...Unitary system volumetric flow rate = 0.47798 m3/s.
   ** Warning ** Output:Meter: invalid Key Name="NATURALGAS:FACILITY" - not found.
   ** Warning ** Output:Meter: invalid Key Name="DISTRICTCOOLING:FACILITY" - not found.
   ** Warning ** Output:Meter: invalid Key Name="DISTRICTHEATING:FACILITY" - not found.
   ** Warning ** Output:Meter:MeterFileOnly: invalid Key Name="NATURALGAS:FACILITY" - not found.
   ** Warning ** Output:Meter:MeterFileOnly requested for "Electricity:Facility" (TimeStep), already on "Output:Meter". Will report to both eplusout.eso and eplusout.mtr
   ************* Testing Individual Branch Integrity
   ************* All Branches passed integrity testing
   ************* Testing Individual Supply Air Path Integrity
   ************* All Supply Air Paths passed integrity testing
   ************* Testing Individual Return Air Path Integrity
   ************* All Return Air Paths passed integrity testing
   ************* No node connection errors were found.
   ************* Beginning Simulation
   ** Warning ** Processing Monthly Tabular Reports: Variable names not valid for this simulation
   **   ~~~   ** ...use Output:Diagnostics,DisplayExtraWarnings; to show more details on individual variables.
   ** Warning ** Inside surface heat balance did not converge with Max Temp Difference [C] =0.270 vs Max Allowed Temp Diff [C] =2.000000E-003
   **   ~~~   **  Environment=MIAMI INTL AP ANN CLG .4% CONDNS DB=>MWB, at Simulation time=07/21 17:30 - 17:35
   ** Warning ** Inside surface heat balance did not converge with Max Temp Difference [C] =0.212 vs Max Allowed Temp Diff [C] =2.000000E-003
   **   ~~~   **  Environment=MIAMI INTL AP ANN CLG .4% CONDNS DB=>MWB, at Simulation time=07/21 17:40 - 17:45
   ** Warning ** CalcDoe2DXCoil: Coil:Cooling:DX:SingleSpeed "CORE_ZN_TZONEPTAC 1SPD DX AC CLG COIL" - Full load outlet air dry-bulb temperature < 2C. This indicates the possibility of coil frost/freeze. Outlet temperature = 1.94 C.
   **   ~~~   **  ...Occurrence info = RUN PERIOD 1, 01/24 10:50 - 10:52
   **   ~~~   ** ... Possible reasons for low outlet air dry-bulb temperatures are: This DX coil
   **   ~~~   **    1) may have a low inlet air dry-bulb temperature. Inlet air temperature = 17.802 C.
   **   ~~~   **    2) may have a low air flow rate per watt of cooling capacity. Check inputs.
   **   ~~~   **    3) is used as part of a HX assisted cooling coil which uses a high sensible effectiveness. Check inputs.
   ** Warning ** CalcDoe2DXCoil: Coil:Cooling:DX:SingleSpeed "PERIMETER_ZN_3_TZONEPTAC 1SPD DX AC CLG COIL" - Full load outlet air dry-bulb temperature < 2C. This indicates the possibility of coil frost/freeze. Outlet temperature = 1.98 C.
   **   ~~~   **  ...Occurrence info = RUN PERIOD 1, 01/24 10:55 - 10:57
   **   ~~~   ** ... Possible reasons for low outlet air dry-bulb temperatures are: This DX coil
   **   ~~~   **    1) may have a low inlet air dry-bulb temperature. Inlet air temperature = 18.041 C.
   **   ~~~   **    2) may have a low air flow rate per watt of cooling capacity. Check inputs.
   **   ~~~   **    3) is used as part of a HX assisted cooling coil which uses a high sensible effectiveness. Check inputs.
   ** Warning ** CalcDoe2DXCoil: Coil:Cooling:DX:SingleSpeed "PERIMETER_ZN_1_TZONEPTAC 1SPD DX AC CLG COIL" - Full load outlet air dry-bulb temperature < 2C. This indicates the possibility of coil frost/freeze. Outlet temperature = 1.96 C.
   **   ~~~   **  ...Occurrence info = RUN PERIOD 1, 01/24 12:20 - 12:30
   **   ~~~   ** ... Possible reasons for low outlet air dry-bulb temperatures are: This DX coil
   **   ~~~   **    1) may have a low inlet air dry-bulb temperature. Inlet air temperature = 18.898 C.
   **   ~~~   **    2) may have a low air flow rate per watt of cooling capacity. Check inputs.
   **   ~~~   **    3) is used as part of a HX assisted cooling coil which uses a high sensible effectiveness. Check inputs.
   ** Warning ** CalcDoe2DXCoil: Coil:Cooling:DX:SingleSpeed "PERIMETER_ZN_4_TZONEPTAC 1SPD DX AC CLG COIL" - Full load outlet air dry-bulb temperature < 2C. This indicates the possibility of coil frost/freeze. Outlet temperature = 1.95 C.
   **   ~~~   **  ...Occurrence info = RUN PERIOD 1, 03/15 09:19 - 09:20
   **   ~~~   ** ... Possible reasons for low outlet air dry-bulb temperatures are: This DX coil
   **   ~~~   **    1) may have a low inlet air dry-bulb temperature. Inlet air temperature = 20.727 C.
   **   ~~~   **    2) may have a low air flow rate per watt of cooling capacity. Check inputs.
   **   ~~~   **    3) is used as part of a HX assisted cooling coil which uses a high sensible effectiveness. Check inputs.
   ** Warning ** Inside surface heat balance did not converge with Max Temp Difference [C] =7.901E-002 vs Max Allowed Temp Diff [C] =2.000000E-003
   **   ~~~   **  Environment=RUN PERIOD 1, at Simulation time=04/16 16:20 - 16:25
   ** Warning ** Inside surface heat balance did not converge with Max Temp Difference [C] =1.344 vs Max Allowed Temp Diff [C] =2.000000E-003
   **   ~~~   **  Environment=RUN PERIOD 1, at Simulation time=05/22 14:20 - 14:30
   ** Warning ** Inside surface heat balance did not converge with Max Temp Difference [C] =0.236 vs Max Allowed Temp Diff [C] =2.000000E-003
   **   ~~~   **  Environment=RUN PERIOD 1, at Simulation time=05/22 14:30 - 14:35
   ** Warning ** Inside surface heat balance did not converge with Max Temp Difference [C] =0.687 vs Max Allowed Temp Diff [C] =2.000000E-003
   **   ~~~   **  Environment=RUN PERIOD 1, at Simulation time=05/22 14:40 - 14:45
   ** Warning ** Inside surface heat balance did not converge with Max Temp Difference [C] =5.872E-002 vs Max Allowed Temp Diff [C] =2.000000E-003
   **   ~~~   **  Environment=RUN PERIOD 1, at Simulation time=05/29 16:30 - 16:40
   ** Warning ** Inside surface heat balance did not converge with Max Temp Difference [C] =8.327E-002 vs Max Allowed Temp Diff [C] =2.000000E-003
   **   ~~~   **  Environment=RUN PERIOD 1, at Simulation time=05/29 16:40 - 16:50
   ** Warning ** Inside surface heat balance did not converge with Max Temp Difference [C] =9.624E-002 vs Max Allowed Temp Diff [C] =2.000000E-003
   **   ~~~   **  Environment=RUN PERIOD 1, at Simulation time=05/29 16:50 - 17:00
   ** Warning ** Inside surface heat balance did not converge with Max Temp Difference [C] =0.319 vs Max Allowed Temp Diff [C] =2.000000E-003
   **   ~~~   **  Environment=RUN PERIOD 1, at Simulation time=07/05 15:40 - 15:43
   ** Warning ** Inside surface heat balance did not converge with Max Temp Difference [C] =0.218 vs Max Allowed Temp Diff [C] =2.000000E-003
   **   ~~~   **  Environment=RUN PERIOD 1, at Simulation time=07/05 15:50 - 15:53
   ** Warning ** Inside surface heat balance did not converge with Max Temp Difference [C] =2.036E-003 vs Max Allowed Temp Diff [C] =2.000000E-003
   **   ~~~   **  Environment=RUN PERIOD 1, at Simulation time=07/05 16:00 - 16:03
   ** Warning ** Inside surface heat balance did not converge with Max Temp Difference [C] =4.036E-002 vs Max Allowed Temp Diff [C] =2.000000E-003
   **   ~~~   **  Environment=RUN PERIOD 1, at Simulation time=07/27 16:00 - 16:10
   ** Warning ** The resource referenced by LifeCycleCost:UsePriceEscalation= "U.S. AVG  COMMERCIAL-ELECTRICITY" has no energy cost. 
   **   ~~~   ** ... It is likely that the wrong resource is used. The resource should match the meter used in Utility:Tariff.
   ** Warning ** The resource referenced by LifeCycleCost:UsePriceEscalation= "U.S. AVG  COMMERCIAL-DISTILLATE OIL" has no energy cost. 
   **   ~~~   ** ... It is likely that the wrong resource is used. The resource should match the meter used in Utility:Tariff.
   ** Warning ** The resource referenced by LifeCycleCost:UsePriceEscalation= "U.S. AVG  COMMERCIAL-RESIDUAL OIL" has no energy cost. 
   **   ~~~   ** ... It is likely that the wrong resource is used. The resource should match the meter used in Utility:Tariff.
   ** Warning ** The resource referenced by LifeCycleCost:UsePriceEscalation= "U.S. AVG  COMMERCIAL-NATURAL GAS" has no energy cost. 
   **   ~~~   ** ... It is likely that the wrong resource is used. The resource should match the meter used in Utility:Tariff.
   ** Warning ** The resource referenced by LifeCycleCost:UsePriceEscalation= "U.S. AVG  COMMERCIAL-COAL" has no energy cost. 
   **   ~~~   ** ... It is likely that the wrong resource is used. The resource should match the meter used in Utility:Tariff.
   ************* Simulation Error Summary *************
   ** Warning ** The following Report Variables were requested but not generated -- check.rdd file
   **   ~~~   ** Either the IDF did not contain these elements, the variable name is misspelled,
   **   ~~~   ** or the requested variable is an advanced output which requires Output : Diagnostics, DisplayAdvancedReportVariables;
   ************* Key=*, VarName=WIND SPEED, Frequency=Hourly
   ************* There are 1 unused schedules in input.
   ************* There are 1 unused week schedules in input.
   ************* There are 10 unused day schedules in input.
   ************* Use Output:Diagnostics,DisplayUnusedSchedules; to see them.
   *************
   ************* ===== Recurring Error Summary =====
   ************* The following recurring error messages occurred.
   *************
   *************  ** Warning ** CalcDoe2DXCoil: Coil:Cooling:DX:SingleSpeed="CORE_ZN_TZONEPTAC 1SPD DX AC CLG COIL" - Full load outlet temperature indicates a possibility of frost/freeze error continues. Outlet air temperature statistics follow:
   *************  **   ~~~   **   This error occurred 357 total times;
   *************  **   ~~~   **   during Warmup 0 times;
   *************  **   ~~~   **   during Sizing 0 times.
   *************  **   ~~~   **   Max=1.967521  Min=-1.061820
   *************
   *************  ** Warning ** CalcDoe2DXCoil: Coil:Cooling:DX:SingleSpeed="PERIMETER_ZN_3_TZONEPTAC 1SPD DX AC CLG COIL" - Full load outlet temperature indicates a possibility of frost/freeze error continues. Outlet air temperature statistics follow:
   *************  **   ~~~   **   This error occurred 352 total times;
   *************  **   ~~~   **   during Warmup 0 times;
   *************  **   ~~~   **   during Sizing 0 times.
   *************  **   ~~~   **   Max=1.998677  Min=-0.741206
   *************
   *************  ** Warning ** CalcDoe2DXCoil: Coil:Cooling:DX:SingleSpeed="PERIMETER_ZN_1_TZONEPTAC 1SPD DX AC CLG COIL" - Full load outlet temperature indicates a possibility of frost/freeze error continues. Outlet air temperature statistics follow:
   *************  **   ~~~   **   This error occurred 218 total times;
   *************  **   ~~~   **   during Warmup 0 times;
   *************  **   ~~~   **   during Sizing 0 times.
   *************  **   ~~~   **   Max=1.974333  Min=-0.352275
   *************
   *************  ** Warning ** CalcDoe2DXCoil: Coil:Cooling:DX:SingleSpeed="PERIMETER_ZN_4_TZONEPTAC 1SPD DX AC CLG COIL" - Full load outlet temperature indicates a possibility of frost/freeze error continues. Outlet air temperature statistics follow:
   *************  **   ~~~   **   This error occurred 6 total times;
   *************  **   ~~~   **   during Warmup 0 times;
   *************  **   ~~~   **   during Sizing 0 times.
   *************  **   ~~~   **   Max=1.989818  Min=1.807760
   *************
   *************  ** Warning ** Inside surface heat balance convergence problem continues
   *************  **   ~~~   **   This error occurred 54 total times;
   *************  **   ~~~   **   during Warmup 0 times;
   *************  **   ~~~   **   during Sizing 0 times.
   *************  **   ~~~   **   Max=5.496855 [C]  Min=0.002204 [C]
   *************
   ************* EnergyPlus Warmup Error Summary. During Warmup: 0 Warning; 0 Severe Errors.
   ************* EnergyPlus Sizing Error Summary. During Sizing: 9 Warning; 0 Severe Errors.
   ************* EnergyPlus Completed Successfully-- 1031 Warning; 0 Severe Errors; Elapsed Time=00hr 00min  5.00sec
