Program Version,EnergyPlus, Version 23.2.0-7636e6b3e9, YMD=2024.09.08 23:41,
   ************* Beginning Zone Sizing Calculations
   ** Warning ** Site:GroundTemperature:BuildingSurface: Some values fall outside the range of 15-25C.
   **   ~~~   ** These values may be inappropriate.  Please consult the Input Output Reference for more details.
   ** Warning ** ProcessScheduleInput: Schedule:Constant="ALWAYS ON DISCRETE", Blank Schedule Type Limits Name input -- will not be validated.
   ** Warning ** ProcessScheduleInput: Schedule:Constant="ALWAYS OFF DISCRETE", Blank Schedule Type Limits Name input -- will not be validated.
   ** Warning ** ProcessScheduleInput: Schedule:Constant="ALWAYS ON CONTINUOUS", Blank Schedule Type Limits Name input -- will not be validated.
   ** Warning ** CheckUsedConstructions: There are 1 nominally unused constructions in input.
   **   ~~~   ** For explicit details on each unused construction, use Output:Diagnostics,DisplayExtraWarnings;
   ** Warning ** GetElectricEIRChillerInput: Chiller:Electric:EIR="90.1-2013 AIRCOOLED   CHILLER 0"
   **   ~~~   ** Capacity ratio as a function of temperature curve output is not equal to 1.0 (+ or - 10%) at reference conditions.
   **   ~~~   ** Curve output at reference conditions = 1.105
   ** Warning ** Inside surface heat balance did not converge with Max Temp Difference [C] =0.270 vs Max Allowed Temp Diff [C] =2.000000E-003
   **   ~~~   **  During Sizing, Environment=MIAMI INTL AP ANN CLG .4% CONDNS DB=>MWB, at Simulation time=07/21 17:30 - 17:35
   ** Warning ** Inside surface heat balance did not converge with Max Temp Difference [C] =0.212 vs Max Allowed Temp Diff [C] =2.000000E-003
   **   ~~~   **  During Sizing, Environment=MIAMI INTL AP ANN CLG .4% CONDNS DB=>MWB, at Simulation time=07/21 17:40 - 17:45
   ** Warning ** Calculated design heating load for zone=CORE_ZN_TZONE is zero.
   **   ~~~   ** Check Sizing:Zone and ZoneControl:Thermostat inputs.
   ** Warning ** Calculated design heating load for zone=PERIMETER_ZN_1_TZONE is zero.
   **   ~~~   ** Check Sizing:Zone and ZoneControl:Thermostat inputs.
   ** Warning ** Calculated design heating load for zone=PERIMETER_ZN_2_TZONE is zero.
   **   ~~~   ** Check Sizing:Zone and ZoneControl:Thermostat inputs.
   ** Warning ** Calculated design heating load for zone=PERIMETER_ZN_3_TZONE is zero.
   **   ~~~   ** Check Sizing:Zone and ZoneControl:Thermostat inputs.
   ** Warning ** Calculated design heating load for zone=PERIMETER_ZN_4_TZONE is zero.
   **   ~~~   ** Check Sizing:Zone and ZoneControl:Thermostat inputs.
   ************* Beginning Plant Sizing Calculations
   ** Warning ** Check input. Pump nominal power or motor efficiency is set to 0, for pump=HOT WATER LOOP PUMP
   ** Warning ** Check input. Pump nominal flow rate is set or calculated = 0, for pump=HOT WATER LOOP PUMP
   ** Warning ** Output:Meter: invalid Key Name="NATURALGAS:FACILITY" - not found.
   ** Warning ** Output:Meter: invalid Key Name="DISTRICTCOOLING:FACILITY" - not found.
   ** Warning ** Output:Meter: invalid Key Name="DISTRICTHEATING:FACILITY" - not found.
   ** Warning ** Output:Meter:MeterFileOnly: invalid Key Name="NATURALGAS:FACILITY" - not found.
   ** Warning ** Output:Meter:MeterFileOnly requested for "Electricity:Facility" (TimeStep), already on "Output:Meter". Will report to both eplusout.eso and eplusout.mtr
   ************* Testing Individual Branch Integrity
   ************* All Branches passed integrity testing
   ************* Testing Individual Supply Air Path Integrity
   ************* All Supply Air Paths passed integrity testing
   ************* Testing Individual Return Air Path Integrity
   ************* All Return Air Paths passed integrity testing
   ************* No node connection errors were found.
   ** Warning ** Output:Table:Monthly requested with SimulationControl Run Simulation for Weather File Run Periods set to No so Output:Table:Monthly will not be generated
   ** Warning ** Inside surface heat balance did not converge with Max Temp Difference [C] =0.595 vs Max Allowed Temp Diff [C] =2.000000E-003
   **   ~~~   **  Environment=MIAMI INTL AP ANN CLG .4% CONDNS DB=>MWB HVAC Sizing Pass 1, at Simulation time=07/21 17:20 - 17:25
   ** Warning ** Inside surface heat balance did not converge with Max Temp Difference [C] =0.396 vs Max Allowed Temp Diff [C] =2.000000E-003
   **   ~~~   **  Environment=MIAMI INTL AP ANN CLG .4% CONDNS DB=>MWB HVAC Sizing Pass 1, at Simulation time=07/21 17:30 - 17:35
   ** Warning ** Inside surface heat balance did not converge with Max Temp Difference [C] =2.449E-003 vs Max Allowed Temp Diff [C] =2.000000E-003
   **   ~~~   **  Environment=MIAMI INTL AP ANN CLG .4% CONDNS DB=>MWB HVAC Sizing Pass 1, at Simulation time=07/21 17:30 - 17:35
   ** Warning ** Inside surface heat balance did not converge with Max Temp Difference [C] =0.209 vs Max Allowed Temp Diff [C] =2.000000E-003
   **   ~~~   **  Environment=MIAMI INTL AP ANN CLG .4% CONDNS DB=>MWB HVAC Sizing Pass 1, at Simulation time=07/21 17:40 - 17:45
   ** Warning ** Inside surface heat balance did not converge with Max Temp Difference [C] =0.122 vs Max Allowed Temp Diff [C] =2.000000E-003
   **   ~~~   **  Environment=MIAMI INTL AP ANN CLG .4% CONDNS DB=>MWB HVAC Sizing Pass 1, at Simulation time=07/21 17:40 - 17:45
   ** Warning ** SizePlantLoop: Calculated Plant Sizing Design Volume Flow Rate=[0.00] is too small. Set to 0.0
   **   ~~~   ** ..occurs for PlantLoop=HOT WATER LOOP
   ** Warning ** SizePump: Calculated Pump Nominal Volume Flow Rate=[0.00] is too small. Set to 0.0
   **   ~~~   ** ..occurs for Pump=HOT WATER LOOP PUMP
   ************* Beginning Simulation
   ** Warning ** Inside surface heat balance did not converge with Max Temp Difference [C] =0.595 vs Max Allowed Temp Diff [C] =2.000000E-003
   **   ~~~   **  Environment=MIAMI INTL AP ANN CLG .4% CONDNS DB=>MWB, at Simulation time=07/21 17:20 - 17:25
   ** Warning ** Inside surface heat balance did not converge with Max Temp Difference [C] =0.396 vs Max Allowed Temp Diff [C] =2.000000E-003
   **   ~~~   **  Environment=MIAMI INTL AP ANN CLG .4% CONDNS DB=>MWB, at Simulation time=07/21 17:30 - 17:35
   ** Warning ** Inside surface heat balance did not converge with Max Temp Difference [C] =2.449E-003 vs Max Allowed Temp Diff [C] =2.000000E-003
   **   ~~~   **  Environment=MIAMI INTL AP ANN CLG .4% CONDNS DB=>MWB, at Simulation time=07/21 17:30 - 17:35
   ** Warning ** Inside surface heat balance did not converge with Max Temp Difference [C] =0.209 vs Max Allowed Temp Diff [C] =2.000000E-003
   **   ~~~   **  Environment=MIAMI INTL AP ANN CLG .4% CONDNS DB=>MWB, at Simulation time=07/21 17:40 - 17:45
   ** Warning ** Inside surface heat balance did not converge with Max Temp Difference [C] =0.122 vs Max Allowed Temp Diff [C] =2.000000E-003
   **   ~~~   **  Environment=MIAMI INTL AP ANN CLG .4% CONDNS DB=>MWB, at Simulation time=07/21 17:40 - 17:45
   ************* Simulation Error Summary *************
   ************* There are 8 unused objects in input.
   ************* Use Output:Diagnostics,DisplayUnusedObjects; to see them.
   ************* There are 2 unused schedules in input.
   ************* There are 2 unused week schedules in input.
   ************* There are 11 unused day schedules in input.
   ************* Use Output:Diagnostics,DisplayUnusedSchedules; to see them.
   *************
   ************* ===== Final Error Summary =====
   ************* The following error categories occurred.  Consider correcting or noting.
   ************* Nominally Unused Constructions
   ************* ..The nominally unused constructions warning is provided to alert you to potential conditions that can cause
   ************* ..extra time during simulation. Each construction is calculated by the algorithm indicated in the HeatBalanceAlgorithm
   ************* ..object. You may remove the constructions indicated (when you use the DisplayExtraWarnings option).
   *************
   ************* EnergyPlus Warmup Error Summary. During Warmup: 0 Warning; 0 Severe Errors.
   ************* EnergyPlus Sizing Error Summary. During Sizing: 13 Warning; 0 Severe Errors.
   ************* EnergyPlus Completed Successfully-- 33 Warning; 0 Severe Errors; Elapsed Time=00hr 00min 23.05sec
