{
   "completed_at" : "20240905T141825Z",
   "completed_status" : "Success",
   "created_at" : "20240905T141817Z",
   "current_step" : 2,
   "eplusout_err" : "Program Version,EnergyPlus, Version 23.2.0-7636e6b3e9, YMD=2024.09.05 10:18,\n   ************* Beginning Zone Sizing Calculations\n   ** Warning ** Site:GroundTemperature:BuildingSurface: Some values fall outside the range of 15-25C.\n   **   ~~~   ** These values may be inappropriate.  Please consult the Input Output Reference for more details.\n   ** Warning ** ProcessScheduleInput: Schedule:Constant=\"ALWAYS ON CONTINUOUS\", Blank Schedule Type Limits Name input -- will not be validated.\n   ** Warning ** Inside surface heat balance did not converge with Max Temp Difference [C] =0.270 vs Max Allowed Temp Diff [C] =2.000000E-003\n   **   ~~~   **  During Sizing, Environment=MIAMI INTL AP ANN CLG .4% CONDNS DB=>MWB, at Simulation time=07/21 17:30 - 17:35\n   ** Warning ** Inside surface heat balance did not converge with Max Temp Difference [C] =0.212 vs Max Allowed Temp Diff [C] =2.000000E-003\n   **   ~~~   **  During Sizing, Environment=MIAMI INTL AP ANN CLG .4% CONDNS DB=>MWB, at Simulation time=07/21 17:40 - 17:45\n   ** Warning ** Calculated design heating load for zone=CORE_ZN_TZONE is zero.\n   **   ~~~   ** Check Sizing:Zone and ZoneControl:Thermostat inputs.\n   ** Warning ** Calculated design heating load for zone=PERIMETER_ZN_1_TZONE is zero.\n   **   ~~~   ** Check Sizing:Zone and ZoneControl:Thermostat inputs.\n   ** Warning ** Calculated design heating load for zone=PERIMETER_ZN_2_TZONE is zero.\n   **   ~~~   ** Check Sizing:Zone and ZoneControl:Thermostat inputs.\n   ** Warning ** Calculated design heating load for zone=PERIMETER_ZN_3_TZONE is zero.\n   **   ~~~   ** Check Sizing:Zone and ZoneControl:Thermostat inputs.\n   ** Warning ** Calculated design heating load for zone=PERIMETER_ZN_4_TZONE is zero.\n   **   ~~~   ** Check Sizing:Zone and ZoneControl:Thermostat inputs.\n   ** Warning ** The Standard Ratings is calculated for Coil:Cooling:DX:SingleSpeed = CORE_ZN_TZONEPTAC 1SPD DX AC CLG COIL but not at the AHRI test condition due to curve out of bound.\n   **   ~~~   **  Review the Standard Ratings calculations in the Engineering Reference for this coil type. Also, use Output:Diagnostics, DisplayExtraWarnings for further guidance.\n   ** Warning ** The Standard Ratings is calculated for Coil:Cooling:DX:SingleSpeed = PERIMETER_ZN_1_TZONEPTAC 1SPD DX AC CLG COIL but not at the AHRI test condition due to curve out of bound.\n   **   ~~~   **  Review the Standard Ratings calculations in the Engineering Reference for this coil type. Also, use Output:Diagnostics, DisplayExtraWarnings for further guidance.\n   ** Warning ** The Standard Ratings is calculated for Coil:Cooling:DX:SingleSpeed = PERIMETER_ZN_2_TZONEPTAC 1SPD DX AC CLG COIL but not at the AHRI test condition due to curve out of bound.\n   **   ~~~   **  Review the Standard Ratings calculations in the Engineering Reference for this coil type. Also, use Output:Diagnostics, DisplayExtraWarnings for further guidance.\n   ** Warning ** The Standard Ratings is calculated for Coil:Cooling:DX:SingleSpeed = PERIMETER_ZN_3_TZONEPTAC 1SPD DX AC CLG COIL but not at the AHRI test condition due to curve out of bound.\n   **   ~~~   **  Review the Standard Ratings calculations in the Engineering Reference for this coil type. Also, use Output:Diagnostics, DisplayExtraWarnings for further guidance.\n   ** Warning ** The Standard Ratings is calculated for Coil:Cooling:DX:SingleSpeed = PERIMETER_ZN_4_TZONEPTAC 1SPD DX AC CLG COIL but not at the AHRI test condition due to curve out of bound.\n   **   ~~~   **  Review the Standard Ratings calculations in the Engineering Reference for this coil type. Also, use Output:Diagnostics, DisplayExtraWarnings for further guidance.\n   ** Warning ** ZoneHVAC:PackagedTerminalAirConditioner \"CORE_ZN_TZONE PTAC\"\n   **   ~~~   ** ...For fan type and name = Fan:OnOff \"CORE_ZN_TZONEPTAC_FAN\"\n   **   ~~~   ** ...Fan power ratio function of speed ratio curve has no impact if fan volumetric flow rate is the same as the unitary system volumetric flow rate.\n   **   ~~~   ** ...Fan volumetric flow rate            = 0.58350 m3/s.\n   **   ~~~   ** ...Unitary system volumetric flow rate = 0.58350 m3/s.\n   ** Warning ** ZoneHVAC:PackagedTerminalAirConditioner \"PERIMETER_ZN_1_TZONE PTAC\"\n   **   ~~~   ** ...For fan type and name = Fan:OnOff \"PERIMETER_ZN_1_TZONEPTAC_FAN\"\n   **   ~~~   ** ...Fan power ratio function of speed ratio curve has no impact if fan volumetric flow rate is the same as the unitary system volumetric flow rate.\n   **   ~~~   ** ...Fan volumetric flow rate            = 0.45928 m3/s.\n   **   ~~~   ** ...Unitary system volumetric flow rate = 0.45928 m3/s.\n   ** Warning ** ZoneHVAC:PackagedTerminalAirConditioner \"PERIMETER_ZN_2_TZONE PTAC\"\n   **   ~~~   ** ...For fan type and name = Fan:OnOff \"PERIMETER_ZN_2_TZONEPTAC_FAN\"\n   **   ~~~   ** ...Fan power ratio function of speed ratio curve has no impact if fan volumetric flow rate is the same as the unitary system volumetric flow rate.\n   **   ~~~   ** ...Fan volumetric flow rate            = 0.55623 m3/s.\n   **   ~~~   ** ...Unitary system volumetric flow rate = 0.55623 m3/s.\n   ** Warning ** ZoneHVAC:PackagedTerminalAirConditioner \"PERIMETER_ZN_3_TZONE PTAC\"\n   **   ~~~   ** ...For fan type and name = Fan:OnOff \"PERIMETER_ZN_3_TZONEPTAC_FAN\"\n   **   ~~~   ** ...Fan power ratio function of speed ratio curve has no impact if fan volumetric flow rate is the same as the unitary system volumetric flow rate.\n   **   ~~~   ** ...Fan volumetric flow rate            = 0.45758 m3/s.\n   **   ~~~   ** ...Unitary system volumetric flow rate = 0.45758 m3/s.\n   ** Warning ** ZoneHVAC:PackagedTerminalAirConditioner \"PERIMETER_ZN_4_TZONE PTAC\"\n   **   ~~~   ** ...For fan type and name = Fan:OnOff \"PERIMETER_ZN_4_TZONEPTAC_FAN\"\n   **   ~~~   ** ...Fan power ratio function of speed ratio curve has no impact if fan volumetric flow rate is the same as the unitary system volumetric flow rate.\n   **   ~~~   ** ...Fan volumetric flow rate            = 0.47798 m3/s.\n   **   ~~~   ** ...Unitary system volumetric flow rate = 0.47798 m3/s.\n   ** Warning ** Output:Meter: invalid Key Name=\"NATURALGAS:FACILITY\" - not found.\n   ** Warning ** Output:Meter: invalid Key Name=\"DISTRICTCOOLING:FACILITY\" - not found.\n   ** Warning ** Output:Meter: invalid Key Name=\"DISTRICTHEATING:FACILITY\" - not found.\n   ** Warning ** Output:Meter:MeterFileOnly: invalid Key Name=\"NATURALGAS:FACILITY\" - not found.\n   ** Warning ** Output:Meter:MeterFileOnly requested for \"Electricity:Facility\" (TimeStep), already on \"Output:Meter\". Will report to both eplusout.eso and eplusout.mtr\n   ************* Testing Individual Branch Integrity\n   ************* All Branches passed integrity testing\n   ************* Testing Individual Supply Air Path Integrity\n   ************* All Supply Air Paths passed integrity testing\n   ************* Testing Individual Return Air Path Integrity\n   ************* All Return Air Paths passed integrity testing\n   ************* No node connection errors were found.\n   ************* Beginning Simulation\n   ** Warning ** Processing Monthly Tabular Reports: Variable names not valid for this simulation\n   **   ~~~   ** ...use Output:Diagnostics,DisplayExtraWarnings; to show more details on individual variables.\n   ** Warning ** Inside surface heat balance did not converge with Max Temp Difference [C] =0.270 vs Max Allowed Temp Diff [C] =2.000000E-003\n   **   ~~~   **  Environment=MIAMI INTL AP ANN CLG .4% CONDNS DB=>MWB, at Simulation time=07/21 17:30 - 17:35\n   ** Warning ** Inside surface heat balance did not converge with Max Temp Difference [C] =0.212 vs Max Allowed Temp Diff [C] =2.000000E-003\n   **   ~~~   **  Environment=MIAMI INTL AP ANN CLG .4% CONDNS DB=>MWB, at Simulation time=07/21 17:40 - 17:45\n   ** Warning ** CalcDoe2DXCoil: Coil:Cooling:DX:SingleSpeed \"CORE_ZN_TZONEPTAC 1SPD DX AC CLG COIL\" - Full load outlet air dry-bulb temperature < 2C. This indicates the possibility of coil frost/freeze. Outlet temperature = 1.94 C.\n   **   ~~~   **  ...Occurrence info = RUN PERIOD 1, 01/24 10:50 - 10:52\n   **   ~~~   ** ... Possible reasons for low outlet air dry-bulb temperatures are: This DX coil\n   **   ~~~   **    1) may have a low inlet air dry-bulb temperature. Inlet air temperature = 17.802 C.\n   **   ~~~   **    2) may have a low air flow rate per watt of cooling capacity. Check inputs.\n   **   ~~~   **    3) is used as part of a HX assisted cooling coil which uses a high sensible effectiveness. Check inputs.\n   ** Warning ** CalcDoe2DXCoil: Coil:Cooling:DX:SingleSpeed \"PERIMETER_ZN_3_TZONEPTAC 1SPD DX AC CLG COIL\" - Full load outlet air dry-bulb temperature < 2C. This indicates the possibility of coil frost/freeze. Outlet temperature = 1.98 C.\n   **   ~~~   **  ...Occurrence info = RUN PERIOD 1, 01/24 10:55 - 10:57\n   **   ~~~   ** ... Possible reasons for low outlet air dry-bulb temperatures are: This DX coil\n   **   ~~~   **    1) may have a low inlet air dry-bulb temperature. Inlet air temperature = 18.041 C.\n   **   ~~~   **    2) may have a low air flow rate per watt of cooling capacity. Check inputs.\n   **   ~~~   **    3) is used as part of a HX assisted cooling coil which uses a high sensible effectiveness. Check inputs.\n   ** Warning ** CalcDoe2DXCoil: Coil:Cooling:DX:SingleSpeed \"PERIMETER_ZN_1_TZONEPTAC 1SPD DX AC CLG COIL\" - Full load outlet air dry-bulb temperature < 2C. This indicates the possibility of coil frost/freeze. Outlet temperature = 1.96 C.\n   **   ~~~   **  ...Occurrence info = RUN PERIOD 1, 01/24 12:20 - 12:30\n   **   ~~~   ** ... Possible reasons for low outlet air dry-bulb temperatures are: This DX coil\n   **   ~~~   **    1) may have a low inlet air dry-bulb temperature. Inlet air temperature = 18.898 C.\n   **   ~~~   **    2) may have a low air flow rate per watt of cooling capacity. Check inputs.\n   **   ~~~   **    3) is used as part of a HX assisted cooling coil which uses a high sensible effectiveness. Check inputs.\n   ** Warning ** CalcDoe2DXCoil: Coil:Cooling:DX:SingleSpeed \"PERIMETER_ZN_4_TZONEPTAC 1SPD DX AC CLG COIL\" - Full load outlet air dry-bulb temperature < 2C. This indicates the possibility of coil frost/freeze. Outlet temperature = 1.95 C.\n   **   ~~~   **  ...Occurrence info = RUN PERIOD 1, 03/15 09:19 - 09:20\n   **   ~~~   ** ... Possible reasons for low outlet air dry-bulb temperatures are: This DX coil\n   **   ~~~   **    1) may have a low inlet air dry-bulb temperature. Inlet air temperature = 20.727 C.\n   **   ~~~   **    2) may have a low air flow rate per watt of cooling capacity. Check inputs.\n   **   ~~~   **    3) is used as part of a HX assisted cooling coil which uses a high sensible effectiveness. Check inputs.\n   ** Warning ** Inside surface heat balance did not converge with Max Temp Difference [C] =7.901E-002 vs Max Allowed Temp Diff [C] =2.000000E-003\n   **   ~~~   **  Environment=RUN PERIOD 1, at Simulation time=04/16 16:20 - 16:25\n   ** Warning ** Inside surface heat balance did not converge with Max Temp Difference [C] =1.344 vs Max Allowed Temp Diff [C] =2.000000E-003\n   **   ~~~   **  Environment=RUN PERIOD 1, at Simulation time=05/22 14:20 - 14:30\n   ** Warning ** Inside surface heat balance did not converge with Max Temp Difference [C] =0.236 vs Max Allowed Temp Diff [C] =2.000000E-003\n   **   ~~~   **  Environment=RUN PERIOD 1, at Simulation time=05/22 14:30 - 14:35\n   ** Warning ** Inside surface heat balance did not converge with Max Temp Difference [C] =0.687 vs Max Allowed Temp Diff [C] =2.000000E-003\n   **   ~~~   **  Environment=RUN PERIOD 1, at Simulation time=05/22 14:40 - 14:45\n   ** Warning ** Inside surface heat balance did not converge with Max Temp Difference [C] =5.872E-002 vs Max Allowed Temp Diff [C] =2.000000E-003\n   **   ~~~   **  Environment=RUN PERIOD 1, at Simulation time=05/29 16:30 - 16:40\n   ** Warning ** Inside surface heat balance did not converge with Max Temp Difference [C] =8.327E-002 vs Max Allowed Temp Diff [C] =2.000000E-003\n   **   ~~~   **  Environment=RUN PERIOD 1, at Simulation time=05/29 16:40 - 16:50\n   ** Warning ** Inside surface heat balance did not converge with Max Temp Difference [C] =9.624E-002 vs Max Allowed Temp Diff [C] =2.000000E-003\n   **   ~~~   **  Environment=RUN PERIOD 1, at Simulation time=05/29 16:50 - 17:00\n   ** Warning ** Inside surface heat balance did not converge with Max Temp Difference [C] =0.319 vs Max Allowed Temp Diff [C] =2.000000E-003\n   **   ~~~   **  Environment=RUN PERIOD 1, at Simulation time=07/05 15:40 - 15:43\n   ** Warning ** Inside surface heat balance did not converge with Max Temp Difference [C] =0.218 vs Max Allowed Temp Diff [C] =2.000000E-003\n   **   ~~~   **  Environment=RUN PERIOD 1, at Simulation time=07/05 15:50 - 15:53\n   ** Warning ** Inside surface heat balance did not converge with Max Temp Difference [C] =2.036E-003 vs Max Allowed Temp Diff [C] =2.000000E-003\n   **   ~~~   **  Environment=RUN PERIOD 1, at Simulation time=07/05 16:00 - 16:03\n   ** Warning ** Inside surface heat balance did not converge with Max Temp Difference [C] =4.036E-002 vs Max Allowed Temp Diff [C] =2.000000E-003\n   **   ~~~   **  Environment=RUN PERIOD 1, at Simulation time=07/27 16:00 - 16:10\n   ** Warning ** The resource referenced by LifeCycleCost:UsePriceEscalation= \"U.S. AVG  COMMERCIAL-ELECTRICITY\" has no energy cost. \n   **   ~~~   ** ... It is likely that the wrong resource is used. The resource should match the meter used in Utility:Tariff.\n   ** Warning ** The resource referenced by LifeCycleCost:UsePriceEscalation= \"U.S. AVG  COMMERCIAL-DISTILLATE OIL\" has no energy cost. \n   **   ~~~   ** ... It is likely that the wrong resource is used. The resource should match the meter used in Utility:Tariff.\n   ** Warning ** The resource referenced by LifeCycleCost:UsePriceEscalation= \"U.S. AVG  COMMERCIAL-RESIDUAL OIL\" has no energy cost. \n   **   ~~~   ** ... It is likely that the wrong resource is used. The resource should match the meter used in Utility:Tariff.\n   ** Warning ** The resource referenced by LifeCycleCost:UsePriceEscalation= \"U.S. AVG  COMMERCIAL-NATURAL GAS\" has no energy cost. \n   **   ~~~   ** ... It is likely that the wrong resource is used. The resource should match the meter used in Utility:Tariff.\n   ** Warning ** The resource referenced by LifeCycleCost:UsePriceEscalation= \"U.S. AVG  COMMERCIAL-COAL\" has no energy cost. \n   **   ~~~   ** ... It is likely that the wrong resource is used. The resource should match the meter used in Utility:Tariff.\n   ************* Simulation Error Summary *************\n   ** Warning ** The following Report Variables were requested but not generated -- check.rdd file\n   **   ~~~   ** Either the IDF did not contain these elements, the variable name is misspelled,\n   **   ~~~   ** or the requested variable is an advanced output which requires Output : Diagnostics, DisplayAdvancedReportVariables;\n   ************* Key=*, VarName=WIND SPEED, Frequency=Hourly\n   ************* There are 1 unused schedules in input.\n   ************* There are 1 unused week schedules in input.\n   ************* There are 10 unused day schedules in input.\n   ************* Use Output:Diagnostics,DisplayUnusedSchedules; to see them.\n   *************\n   ************* ===== Recurring Error Summary =====\n   ************* The following recurring error messages occurred.\n   *************\n   *************  ** Warning ** CalcDoe2DXCoil: Coil:Cooling:DX:SingleSpeed=\"CORE_ZN_TZONEPTAC 1SPD DX AC CLG COIL\" - Full load outlet temperature indicates a possibility of frost/freeze error continues. Outlet air temperature statistics follow:\n   *************  **   ~~~   **   This error occurred 357 total times;\n   *************  **   ~~~   **   during Warmup 0 times;\n   *************  **   ~~~   **   during Sizing 0 times.\n   *************  **   ~~~   **   Max=1.967521  Min=-1.061820\n   *************\n   *************  ** Warning ** CalcDoe2DXCoil: Coil:Cooling:DX:SingleSpeed=\"PERIMETER_ZN_3_TZONEPTAC 1SPD DX AC CLG COIL\" - Full load outlet temperature indicates a possibility of frost/freeze error continues. Outlet air temperature statistics follow:\n   *************  **   ~~~   **   This error occurred 352 total times;\n   *************  **   ~~~   **   during Warmup 0 times;\n   *************  **   ~~~   **   during Sizing 0 times.\n   *************  **   ~~~   **   Max=1.998677  Min=-0.741206\n   *************\n   *************  ** Warning ** CalcDoe2DXCoil: Coil:Cooling:DX:SingleSpeed=\"PERIMETER_ZN_1_TZONEPTAC 1SPD DX AC CLG COIL\" - Full load outlet temperature indicates a possibility of frost/freeze error continues. Outlet air temperature statistics follow:\n   *************  **   ~~~   **   This error occurred 218 total times;\n   *************  **   ~~~   **   during Warmup 0 times;\n   *************  **   ~~~   **   during Sizing 0 times.\n   *************  **   ~~~   **   Max=1.974333  Min=-0.352275\n   *************\n   *************  ** Warning ** CalcDoe2DXCoil: Coil:Cooling:DX:SingleSpeed=\"PERIMETER_ZN_4_TZONEPTAC 1SPD DX AC CLG COIL\" - Full load outlet temperature indicates a possibility of frost/freeze error continues. Outlet air temperature statistics follow:\n   *************  **   ~~~   **   This error occurred 6 total times;\n   *************  **   ~~~   **   during Warmup 0 times;\n   *************  **   ~~~   **   during Sizing 0 times.\n   *************  **   ~~~   **   Max=1.989818  Min=1.807760\n   *************\n   *************  ** Warning ** Inside surface heat balance convergence problem continues\n   *************  **   ~~~   **   This error occurred 54 total times;\n   *************  **   ~~~   **   during Warmup 0 times;\n   *************  **   ~~~   **   during Sizing 0 times.\n   *************  **   ~~~   **   Max=5.496855 [C]  Min=0.002204 [C]\n   *************\n   ************* EnergyPlus Warmup Error Summary. During Warmup: 0 Warning; 0 Severe Errors.\n   ************* EnergyPlus Sizing Error Summary. During Sizing: 9 Warning; 0 Severe Errors.\n   ************* EnergyPlus Completed Successfully-- 1031 Warning; 0 Severe Errors; Elapsed Time=00hr 00min  5.00sec\n",
   "file_paths" : 
   [
      "/home/chenkianwee/kianwee_work/code_workspace/10.ifc2osmod/ifc2osmod/results/osmod/small_office_ptac/small_office_wrkflw/generated_files",
      "./files",
      "./weather",
      "../../files",
      "../../weather",
      "./"
   ],
   "hash" : "FB39E3C4",
   "run_options" : null,
   "seed_file" : "../small_office.osm",
   "started_at" : "20240905T141818Z",
   "steps" : 
   [
      {
         "arguments" : 
         {
            "fan_type" : "Cycling",
            "heating_type" : "No Heat"
         },
         "measure_dir_name" : "add_ptac",
         "name" : "add_ptac",
         "result" : 
         {
            "completed_at" : "20240905T141818Z",
            "measure_class_name" : "AddPTAC",
            "measure_display_name" : "Add Packaged Terminal Air-Conditioning (PTAC) Unit",
            "measure_name" : "add_ptac",
            "measure_taxonomy" : "HVAC.Whole System",
            "measure_type" : "ModelMeasure",
            "measure_uid" : "911a38da-2d24-4495-9b21-a5f652822144",
            "measure_version_id" : "239f32ad-4417-486b-b555-0a444f5c496e",
            "measure_version_modified" : "20240829T150531Z",
            "measure_xml_checksum" : "BA514947",
            "started_at" : "20240905T141818Z",
            "stderr" : "",
            "stdout" : "",
            "step_errors" : [],
            "step_files" : [],
            "step_final_condition" : "Successfully added PTAC to the building",
            "step_info" : 
            [
               "Added PTAC with Single Speed DX AC, None heating and Cycling fan to all thermal zones"
            ],
            "step_initial_condition" : "The PTAC will have Single Speed DX AC for cooling, No Heat for heating and uses Cycling fan",
            "step_result" : "Success",
            "step_values" : 
            [
               {
                  "name" : "heating_type",
                  "value" : "No Heat"
               },
               {
                  "name" : "fan_type",
                  "value" : "Cycling"
               }
            ],
            "step_warnings" : []
         }
      },
      {
         "arguments" : {},
         "measure_dir_name" : "site_zone_results",
         "name" : "site_zone_results",
         "result" : 
         {
            "completed_at" : "20240905T141818Z",
            "measure_class_name" : "SiteZoneResults",
            "measure_display_name" : "Add site and zone level output variables",
            "measure_name" : "site_zone_results",
            "measure_taxonomy" : "Reporting.QAQC",
            "measure_type" : "ModelMeasure",
            "measure_uid" : "2cfd908e-9d4a-43d3-ba4e-8253cb0364b3",
            "measure_version_id" : "6760a2bd-5361-42a9-9338-a6b13ed95380",
            "measure_version_modified" : "20240903T152740Z",
            "measure_xml_checksum" : "50718C83",
            "started_at" : "20240905T141818Z",
            "stderr" : "",
            "stdout" : "",
            "step_errors" : [],
            "step_files" : [],
            "step_final_condition" : "Successfully output variables",
            "step_info" : 
            [
               "There are no user arguments in this measure"
            ],
            "step_result" : "Success",
            "step_values" : [],
            "step_warnings" : []
         }
      }
   ],
   "updated_at" : "20240905T141825Z"
}