{
   "completed_at" : "20240909T034157Z",
   "completed_status" : "Success",
   "created_at" : "20240909T034133Z",
   "current_step" : 0,
   "eplusout_err" : "Program Version,EnergyPlus, Version 23.2.0-7636e6b3e9, YMD=2024.09.08 23:41,\n   ************* Beginning Zone Sizing Calculations\n   ** Warning ** Site:GroundTemperature:BuildingSurface: Some values fall outside the range of 15-25C.\n   **   ~~~   ** These values may be inappropriate.  Please consult the Input Output Reference for more details.\n   ** Warning ** ProcessScheduleInput: Schedule:Constant=\"ALWAYS ON DISCRETE\", Blank Schedule Type Limits Name input -- will not be validated.\n   ** Warning ** ProcessScheduleInput: Schedule:Constant=\"ALWAYS OFF DISCRETE\", Blank Schedule Type Limits Name input -- will not be validated.\n   ** Warning ** ProcessScheduleInput: Schedule:Constant=\"ALWAYS ON CONTINUOUS\", Blank Schedule Type Limits Name input -- will not be validated.\n   ** Warning ** CheckUsedConstructions: There are 1 nominally unused constructions in input.\n   **   ~~~   ** For explicit details on each unused construction, use Output:Diagnostics,DisplayExtraWarnings;\n   ** Warning ** GetElectricEIRChillerInput: Chiller:Electric:EIR=\"90.1-2013 AIRCOOLED   CHILLER 0\"\n   **   ~~~   ** Capacity ratio as a function of temperature curve output is not equal to 1.0 (+ or - 10%) at reference conditions.\n   **   ~~~   ** Curve output at reference conditions = 1.105\n   ** Warning ** Inside surface heat balance did not converge with Max Temp Difference [C] =0.270 vs Max Allowed Temp Diff [C] =2.000000E-003\n   **   ~~~   **  During Sizing, Environment=MIAMI INTL AP ANN CLG .4% CONDNS DB=>MWB, at Simulation time=07/21 17:30 - 17:35\n   ** Warning ** Inside surface heat balance did not converge with Max Temp Difference [C] =0.212 vs Max Allowed Temp Diff [C] =2.000000E-003\n   **   ~~~   **  During Sizing, Environment=MIAMI INTL AP ANN CLG .4% CONDNS DB=>MWB, at Simulation time=07/21 17:40 - 17:45\n   ** Warning ** Calculated design heating load for zone=CORE_ZN_TZONE is zero.\n   **   ~~~   ** Check Sizing:Zone and ZoneControl:Thermostat inputs.\n   ** Warning ** Calculated design heating load for zone=PERIMETER_ZN_1_TZONE is zero.\n   **   ~~~   ** Check Sizing:Zone and ZoneControl:Thermostat inputs.\n   ** Warning ** Calculated design heating load for zone=PERIMETER_ZN_2_TZONE is zero.\n   **   ~~~   ** Check Sizing:Zone and ZoneControl:Thermostat inputs.\n   ** Warning ** Calculated design heating load for zone=PERIMETER_ZN_3_TZONE is zero.\n   **   ~~~   ** Check Sizing:Zone and ZoneControl:Thermostat inputs.\n   ** Warning ** Calculated design heating load for zone=PERIMETER_ZN_4_TZONE is zero.\n   **   ~~~   ** Check Sizing:Zone and ZoneControl:Thermostat inputs.\n   ************* Beginning Plant Sizing Calculations\n   ** Warning ** Check input. Pump nominal power or motor efficiency is set to 0, for pump=HOT WATER LOOP PUMP\n   ** Warning ** Check input. Pump nominal flow rate is set or calculated = 0, for pump=HOT WATER LOOP PUMP\n   ** Warning ** Output:Meter: invalid Key Name=\"NATURALGAS:FACILITY\" - not found.\n   ** Warning ** Output:Meter: invalid Key Name=\"DISTRICTCOOLING:FACILITY\" - not found.\n   ** Warning ** Output:Meter: invalid Key Name=\"DISTRICTHEATING:FACILITY\" - not found.\n   ** Warning ** Output:Meter:MeterFileOnly: invalid Key Name=\"NATURALGAS:FACILITY\" - not found.\n   ** Warning ** Output:Meter:MeterFileOnly requested for \"Electricity:Facility\" (TimeStep), already on \"Output:Meter\". Will report to both eplusout.eso and eplusout.mtr\n   ************* Testing Individual Branch Integrity\n   ************* All Branches passed integrity testing\n   ************* Testing Individual Supply Air Path Integrity\n   ************* All Supply Air Paths passed integrity testing\n   ************* Testing Individual Return Air Path Integrity\n   ************* All Return Air Paths passed integrity testing\n   ************* No node connection errors were found.\n   ** Warning ** Output:Table:Monthly requested with SimulationControl Run Simulation for Weather File Run Periods set to No so Output:Table:Monthly will not be generated\n   ** Warning ** Inside surface heat balance did not converge with Max Temp Difference [C] =0.595 vs Max Allowed Temp Diff [C] =2.000000E-003\n   **   ~~~   **  Environment=MIAMI INTL AP ANN CLG .4% CONDNS DB=>MWB HVAC Sizing Pass 1, at Simulation time=07/21 17:20 - 17:25\n   ** Warning ** Inside surface heat balance did not converge with Max Temp Difference [C] =0.396 vs Max Allowed Temp Diff [C] =2.000000E-003\n   **   ~~~   **  Environment=MIAMI INTL AP ANN CLG .4% CONDNS DB=>MWB HVAC Sizing Pass 1, at Simulation time=07/21 17:30 - 17:35\n   ** Warning ** Inside surface heat balance did not converge with Max Temp Difference [C] =2.449E-003 vs Max Allowed Temp Diff [C] =2.000000E-003\n   **   ~~~   **  Environment=MIAMI INTL AP ANN CLG .4% CONDNS DB=>MWB HVAC Sizing Pass 1, at Simulation time=07/21 17:30 - 17:35\n   ** Warning ** Inside surface heat balance did not converge with Max Temp Difference [C] =0.209 vs Max Allowed Temp Diff [C] =2.000000E-003\n   **   ~~~   **  Environment=MIAMI INTL AP ANN CLG .4% CONDNS DB=>MWB HVAC Sizing Pass 1, at Simulation time=07/21 17:40 - 17:45\n   ** Warning ** Inside surface heat balance did not converge with Max Temp Difference [C] =0.122 vs Max Allowed Temp Diff [C] =2.000000E-003\n   **   ~~~   **  Environment=MIAMI INTL AP ANN CLG .4% CONDNS DB=>MWB HVAC Sizing Pass 1, at Simulation time=07/21 17:40 - 17:45\n   ** Warning ** SizePlantLoop: Calculated Plant Sizing Design Volume Flow Rate=[0.00] is too small. Set to 0.0\n   **   ~~~   ** ..occurs for PlantLoop=HOT WATER LOOP\n   ** Warning ** SizePump: Calculated Pump Nominal Volume Flow Rate=[0.00] is too small. Set to 0.0\n   **   ~~~   ** ..occurs for Pump=HOT WATER LOOP PUMP\n   ************* Beginning Simulation\n   ** Warning ** Inside surface heat balance did not converge with Max Temp Difference [C] =0.595 vs Max Allowed Temp Diff [C] =2.000000E-003\n   **   ~~~   **  Environment=MIAMI INTL AP ANN CLG .4% CONDNS DB=>MWB, at Simulation time=07/21 17:20 - 17:25\n   ** Warning ** Inside surface heat balance did not converge with Max Temp Difference [C] =0.396 vs Max Allowed Temp Diff [C] =2.000000E-003\n   **   ~~~   **  Environment=MIAMI INTL AP ANN CLG .4% CONDNS DB=>MWB, at Simulation time=07/21 17:30 - 17:35\n   ** Warning ** Inside surface heat balance did not converge with Max Temp Difference [C] =2.449E-003 vs Max Allowed Temp Diff [C] =2.000000E-003\n   **   ~~~   **  Environment=MIAMI INTL AP ANN CLG .4% CONDNS DB=>MWB, at Simulation time=07/21 17:30 - 17:35\n   ** Warning ** Inside surface heat balance did not converge with Max Temp Difference [C] =0.209 vs Max Allowed Temp Diff [C] =2.000000E-003\n   **   ~~~   **  Environment=MIAMI INTL AP ANN CLG .4% CONDNS DB=>MWB, at Simulation time=07/21 17:40 - 17:45\n   ** Warning ** Inside surface heat balance did not converge with Max Temp Difference [C] =0.122 vs Max Allowed Temp Diff [C] =2.000000E-003\n   **   ~~~   **  Environment=MIAMI INTL AP ANN CLG .4% CONDNS DB=>MWB, at Simulation time=07/21 17:40 - 17:45\n   ************* Simulation Error Summary *************\n   ************* There are 8 unused objects in input.\n   ************* Use Output:Diagnostics,DisplayUnusedObjects; to see them.\n   ************* There are 2 unused schedules in input.\n   ************* There are 2 unused week schedules in input.\n   ************* There are 11 unused day schedules in input.\n   ************* Use Output:Diagnostics,DisplayUnusedSchedules; to see them.\n   *************\n   ************* ===== Final Error Summary =====\n   ************* The following error categories occurred.  Consider correcting or noting.\n   ************* Nominally Unused Constructions\n   ************* ..The nominally unused constructions warning is provided to alert you to potential conditions that can cause\n   ************* ..extra time during simulation. Each construction is calculated by the algorithm indicated in the HeatBalanceAlgorithm\n   ************* ..object. You may remove the constructions indicated (when you use the DisplayExtraWarnings option).\n   *************\n   ************* EnergyPlus Warmup Error Summary. During Warmup: 0 Warning; 0 Severe Errors.\n   ************* EnergyPlus Sizing Error Summary. During Sizing: 13 Warning; 0 Severe Errors.\n   ************* EnergyPlus Completed Successfully-- 33 Warning; 0 Severe Errors; Elapsed Time=00hr 00min 23.05sec\n",
   "file_paths" : 
   [
      "/home/chenkianwee/kianwee_work/code_workspace/10.ifc2osmod/ifc2osmod/results/osmod/small_office_radiant_pnls/small_office_wrkflw/run/000_radiant_pnls_with_doas/radiant_sizing_run/generated_files",
      "./files",
      "./weather",
      "../../files",
      "../../weather",
      "./"
   ],
   "hash" : "6A0FC50D",
   "run_options" : null,
   "seed_file" : "in.osm",
   "started_at" : "20240909T034133Z",
   "steps" : [],
   "updated_at" : "20240909T034157Z",
   "weather_file" : "in.epw"
}